     2 
Profile.1 HEAT OF FORMATION =    22.189 KCAL =    92.839 KJ
    F        0.00000        0.00000        0.00000
   Ag        2.00000        0.00000        0.00000
     2 
Profile.2 HEAT OF FORMATION =    21.788 KCAL =    91.160 KJ
    F        0.00000        0.00000        0.00000
   Ag        1.95000        0.00000        0.00000
     2 
Profile.3 HEAT OF FORMATION =    20.729 KCAL =    86.729 KJ
    F        0.00000        0.00000        0.00000
   Ag        1.90000        0.00000        0.00000
     2 
Profile.4 HEAT OF FORMATION =    18.977 KCAL =    79.398 KJ
    F        0.00000        0.00000        0.00000
   Ag        1.85000        0.00000        0.00000
     2 
Profile.5 HEAT OF FORMATION =    16.608 KCAL =    69.488 KJ
    F        0.00000        0.00000        0.00000
   Ag        1.80000        0.00000        0.00000
     2 
Profile.6 HEAT OF FORMATION =    13.815 KCAL =    57.803 KJ
    F        0.00000        0.00000        0.00000
   Ag        1.75000        0.00000        0.00000
     2 
Profile.7 HEAT OF FORMATION =    10.873 KCAL =    45.491 KJ
    F        0.00000        0.00000        0.00000
   Ag        1.70000        0.00000        0.00000
     2 
Profile.8 HEAT OF FORMATION =     8.109 KCAL =    33.928 KJ
    F        0.00000        0.00000        0.00000
   Ag        1.65000        0.00000        0.00000
     2 
Profile.9 HEAT OF FORMATION =     5.929 KCAL =    24.805 KJ
    F        0.00000        0.00000        0.00000
   Ag        1.60000        0.00000        0.00000
     2 
Profile.10 HEAT OF FORMATION =     4.861 KCAL =    20.340 KJ
    F        0.00000        0.00000        0.00000
   Ag        1.55000        0.00000        0.00000
     2 
Profile.11 HEAT OF FORMATION =     5.623 KCAL =    23.526 KJ
    F        0.00000        0.00000        0.00000
   Ag        1.50000        0.00000        0.00000
     2 
Profile.12 HEAT OF FORMATION =     9.184 KCAL =    38.425 KJ
    F        0.00000        0.00000        0.00000
   Ag        1.45000        0.00000        0.00000
     2 
Profile.13 HEAT OF FORMATION =    16.851 KCAL =    70.504 KJ
    F        0.00000        0.00000        0.00000
   Ag        1.40000        0.00000        0.00000
     2 
Profile.14 HEAT OF FORMATION =    30.370 KCAL =    127.068 KJ
    F        0.00000        0.00000        0.00000
   Ag        1.35000        0.00000        0.00000
     2 
Profile.15 HEAT OF FORMATION =    52.075 KCAL =    217.880 KJ
    F        0.00000        0.00000        0.00000
   Ag        1.30000        0.00000        0.00000
     2 
Profile.16 HEAT OF FORMATION =    85.115 KCAL =    356.120 KJ
    F        0.00000        0.00000        0.00000
   Ag        1.25000        0.00000        0.00000
     2 
Profile.17 HEAT OF FORMATION =    133.855 KCAL =    560.049 KJ
    F        0.00000        0.00000        0.00000
   Ag        1.20000        0.00000        0.00000
     2 
Profile.18 HEAT OF FORMATION =    204.612 KCAL =    856.098 KJ
    F        0.00000        0.00000        0.00000
   Ag        1.15000        0.00000        0.00000
     2 
Profile.19 HEAT OF FORMATION =    307.116 KCAL =    1284.972 KJ
    F        0.00000        0.00000        0.00000
   Ag        1.10000        0.00000        0.00000
     2 
Profile.20 HEAT OF FORMATION =    457.510 KCAL =    1914.222 KJ
    F        0.00000        0.00000        0.00000
   Ag        1.05000        0.00000        0.00000
