     3 
Profile.   1 HEAT OF FORMATION =    38.682 KCAL
    H       -0.82283        1.19608       -0.00000
    C        0.38766       -0.57297        0.00000
    N       -0.27321        0.40526       -0.00000
     3 
Profile.   2 HEAT OF FORMATION =    38.769 KCAL
    H       -0.85640        1.17163       -0.00000
    C        0.38522       -0.57465        0.00000
    N       -0.26871        0.40846       -0.00000
     3 
Profile.   3 HEAT OF FORMATION =    38.976 KCAL
    H       -0.88888        1.14560       -0.00000
    C        0.38286       -0.57632        0.00000
    N       -0.26435        0.41177       -0.00000
     3 
Profile.   4 HEAT OF FORMATION =    39.301 KCAL
    H       -0.92016        1.11810       -0.00000
    C        0.38053       -0.57801        0.00000
    N       -0.26009        0.41520       -0.00000
     3 
Profile.   5 HEAT OF FORMATION =    39.744 KCAL
    H       -0.95016        1.08919       -0.00000
    C        0.37821       -0.57973        0.00000
    N       -0.25595        0.41875       -0.00000
     3 
Profile.   6 HEAT OF FORMATION =    40.306 KCAL
    H       -0.97882        1.05894       -0.00000
    C        0.37592       -0.58147        0.00000
    N       -0.25193        0.42242       -0.00000
     3 
Profile.   7 HEAT OF FORMATION =    40.985 KCAL
    H       -1.00608        1.02741       -0.00000
    C        0.37365       -0.58323        0.00000
    N       -0.24801        0.42620       -0.00000
     3 
Profile.   8 HEAT OF FORMATION =    41.781 KCAL
    H       -1.03189        0.99468       -0.00000
    C        0.37138       -0.58502        0.00000
    N       -0.24421        0.43009       -0.00000
     3 
Profile.   9 HEAT OF FORMATION =    42.694 KCAL
    H       -1.05621        0.96083       -0.00000
    C        0.36912       -0.58682        0.00000
    N       -0.24053        0.43407       -0.00000
     3 
Profile.  10 HEAT OF FORMATION =    43.722 KCAL
    H       -1.07899        0.92591       -0.00000
    C        0.36687       -0.58864        0.00000
    N       -0.23696        0.43814       -0.00000
     3 
Profile.  11 HEAT OF FORMATION =    44.865 KCAL
    H       -1.10021        0.89001       -0.00000
    C        0.36462       -0.59046        0.00000
    N       -0.23350        0.44229       -0.00000
     3 
Profile.  12 HEAT OF FORMATION =    46.120 KCAL
    H       -1.11984        0.85320       -0.00000
    C        0.36236       -0.59228        0.00000
    N       -0.23015        0.44650       -0.00000
     3 
Profile.  13 HEAT OF FORMATION =    47.488 KCAL
    H       -1.13786        0.81555       -0.00000
    C        0.36009       -0.59409        0.00000
    N       -0.22690        0.45076       -0.00000
     3 
Profile.  14 HEAT OF FORMATION =    48.965 KCAL
    H       -1.15427        0.77713       -0.00000
    C        0.35779       -0.59587        0.00000
    N       -0.22375        0.45505       -0.00000
     3 
Profile.  15 HEAT OF FORMATION =    50.550 KCAL
    H       -1.16905        0.73802       -0.00000
    C        0.35546       -0.59761        0.00000
    N       -0.22069        0.45935       -0.00000
     3 
Profile.  16 HEAT OF FORMATION =    52.240 KCAL
    H       -1.18223        0.69829       -0.00000
    C        0.35309       -0.59929        0.00000
    N       -0.21771        0.46365       -0.00000
     3 
Profile.  17 HEAT OF FORMATION =    54.033 KCAL
    H       -1.19381        0.65801       -0.00000
    C        0.35066       -0.60090        0.00000
    N       -0.21480        0.46793       -0.00000
     3 
Profile.  18 HEAT OF FORMATION =    55.926 KCAL
    H       -1.20383        0.61724       -0.00000
    C        0.34818       -0.60242        0.00000
    N       -0.21195        0.47217       -0.00000
     3 
Profile.  19 HEAT OF FORMATION =    57.915 KCAL
    H       -1.21234        0.57606       -0.00000
    C        0.34563       -0.60384        0.00000
    N       -0.20915        0.47635       -0.00000
     3 
Profile.  20 HEAT OF FORMATION =    59.997 KCAL
    H       -1.21937        0.53453       -0.00000
    C        0.34301       -0.60514        0.00000
    N       -0.20639        0.48046       -0.00000
     3 
Profile.  21 HEAT OF FORMATION =    62.168 KCAL
    H       -1.22500        0.49271       -0.00000
    C        0.34030       -0.60632        0.00000
    N       -0.20366        0.48447       -0.00000
     3 
Profile.  22 HEAT OF FORMATION =    64.424 KCAL
    H       -1.22930        0.45067       -0.00000
    C        0.33750       -0.60735        0.00000
    N       -0.20095        0.48838       -0.00000
     3 
Profile.  23 HEAT OF FORMATION =    66.758 KCAL
    H       -1.23234        0.40845       -0.00000
    C        0.33461       -0.60822        0.00000
    N       -0.19826        0.49217       -0.00000
     3 
Profile.  24 HEAT OF FORMATION =    69.165 KCAL
    H       -1.23423        0.36610       -0.00000
    C        0.33163       -0.60895        0.00000
    N       -0.19557        0.49584       -0.00000
     3 
Profile.  25 HEAT OF FORMATION =    71.638 KCAL
    H       -1.23505        0.32368       -0.00000
    C        0.32856       -0.60951        0.00000
    N       -0.19287        0.49937       -0.00000
     3 
Profile.  26 HEAT OF FORMATION =    74.169 KCAL
    H       -1.23489        0.28121       -0.00000
    C        0.32539       -0.60991        0.00000
    N       -0.19017        0.50277       -0.00000
     3 
Profile.  27 HEAT OF FORMATION =    76.749 KCAL
    H       -1.23386        0.23874       -0.00000
    C        0.32214       -0.61015        0.00000
    N       -0.18745        0.50604       -0.00000
     3 
Profile.  28 HEAT OF FORMATION =    79.368 KCAL
    H       -1.23202        0.19627       -0.00000
    C        0.31880       -0.61024        0.00000
    N       -0.18472        0.50917       -0.00000
     3 
Profile.  29 HEAT OF FORMATION =    82.014 KCAL
    H       -1.22948        0.15384       -0.00000
    C        0.31538       -0.61018        0.00000
    N       -0.18197        0.51217       -0.00000
     3 
Profile.  30 HEAT OF FORMATION =    85.609 KCAL
    H       -1.22499        0.09661        0.00000
    C        0.31063       -0.60986        0.00000
    N       -0.17823        0.51601       -0.00000
     3 
Profile.  31 HEAT OF FORMATION =    87.467 KCAL
    H       -1.22220        0.06705        0.00000
    C        0.30812       -0.60959        0.00000
    N       -0.17627        0.51791       -0.00000
     3 
Profile.  32 HEAT OF FORMATION =    89.982 KCAL
    H       -1.21803        0.02692        0.00000
    C        0.30467       -0.60914        0.00000
    N       -0.17361        0.52041       -0.00000
     3 
Profile.  33 HEAT OF FORMATION =    92.602 KCAL
    H       -1.21315       -0.01529        0.00000
    C        0.30096       -0.60856        0.00000
    N       -0.17078        0.52295       -0.00000
     3 
Profile.  34 HEAT OF FORMATION =    95.174 KCAL
    H       -1.20779       -0.05739        0.00000
    C        0.29721       -0.60788        0.00000
    N       -0.16795        0.52540       -0.00000
     3 
Profile.  35 HEAT OF FORMATION =    97.682 KCAL
    H       -1.20195       -0.09941        0.00000
    C        0.29340       -0.60710        0.00000
    N       -0.16511        0.52776       -0.00000
     3 
Profile.  36 HEAT OF FORMATION =    100.111 KCAL
    H       -1.19564       -0.14133        0.00000
    C        0.28954       -0.60625        0.00000
    N       -0.16225        0.53004       -0.00000
     3 
Profile.  37 HEAT OF FORMATION =    102.442 KCAL
    H       -1.18884       -0.18316        0.00000
    C        0.28564       -0.60531        0.00000
    N       -0.15939        0.53225       -0.00000
     3 
Profile.  38 HEAT OF FORMATION =    104.657 KCAL
    H       -1.18154       -0.22488        0.00000
    C        0.28169       -0.60431        0.00000
    N       -0.15653        0.53439       -0.00000
     3 
Profile.  39 HEAT OF FORMATION =    106.739 KCAL
    H       -1.17372       -0.26648        0.00000
    C        0.27770       -0.60325        0.00000
    N       -0.15367        0.53648       -0.00000
     3 
Profile.  40 HEAT OF FORMATION =    108.668 KCAL
    H       -1.16535       -0.30795        0.00000
    C        0.27366       -0.60214        0.00000
    N       -0.15082        0.53850       -0.00000
     3 
Profile.  41 HEAT OF FORMATION =    110.424 KCAL
    H       -1.15640       -0.34928        0.00000
    C        0.26958       -0.60097        0.00000
    N       -0.14796        0.54048       -0.00000
     3 
Profile.  42 HEAT OF FORMATION =    111.984 KCAL
    H       -1.14683       -0.39044        0.00000
    C        0.26546       -0.59976        0.00000
    N       -0.14511        0.54240       -0.00000
     3 
Profile.  43 HEAT OF FORMATION =    113.323 KCAL
    H       -1.13663       -0.43143        0.00000
    C        0.26128       -0.59850        0.00000
    N       -0.14227        0.54427       -0.00000
     3 
Profile.  44 HEAT OF FORMATION =    114.417 KCAL
    H       -1.12575       -0.47221        0.00000
    C        0.25706       -0.59720        0.00000
    N       -0.13943        0.54609       -0.00000
     3 
Profile.  45 HEAT OF FORMATION =    115.235 KCAL
    H       -1.11417       -0.51276        0.00000
    C        0.25279       -0.59587        0.00000
    N       -0.13659        0.54786       -0.00000
     3 
Profile.  46 HEAT OF FORMATION =    115.749 KCAL
    H       -1.10185       -0.55307        0.00000
    C        0.24845       -0.59449        0.00000
    N       -0.13376        0.54958       -0.00000
     3 
Profile.  47 HEAT OF FORMATION =    115.929 KCAL
    H       -1.08868       -0.59304        0.00000
    C        0.24404       -0.59304        0.00000
    N       -0.13093        0.55122        0.00000
     3 
Profile.  48 HEAT OF FORMATION =    115.750 KCAL
    H       -1.07491       -0.63290       -0.00000
    C        0.23966       -0.59165       -0.00000
    N       -0.12816        0.55289       -0.00000
     3 
Profile.  49 HEAT OF FORMATION =    115.191 KCAL
    H       -1.06027       -0.67237       -0.00000
    C        0.23519       -0.59019       -0.00000
    N       -0.12539        0.55448       -0.00000
     3 
Profile.  50 HEAT OF FORMATION =    114.242 KCAL
    H       -1.04482       -0.71150       -0.00000
    C        0.23067       -0.58871       -0.00000
    N       -0.12262        0.55603       -0.00000
     3 
Profile.  51 HEAT OF FORMATION =    112.902 KCAL
    H       -1.02858       -0.75027       -0.00000
    C        0.22608       -0.58723       -0.00000
    N       -0.11986        0.55755       -0.00000
     3 
Profile.  52 HEAT OF FORMATION =    111.184 KCAL
    H       -1.01152       -0.78866       -0.00000
    C        0.22145       -0.58575       -0.00000
    N       -0.11711        0.55904       -0.00000
     3 
Profile.  53 HEAT OF FORMATION =    109.111 KCAL
    H       -0.99364       -0.82664       -0.00000
    C        0.21676       -0.58427       -0.00000
    N       -0.11438        0.56051       -0.00000
     3 
Profile.  54 HEAT OF FORMATION =    106.715 KCAL
    H       -0.97495       -0.86420       -0.00000
    C        0.21202       -0.58281       -0.00000
    N       -0.11166        0.56196       -0.00000
     3 
Profile.  55 HEAT OF FORMATION =    104.034 KCAL
    H       -0.95543       -0.90132       -0.00000
    C        0.20723       -0.58137       -0.00000
    N       -0.10895        0.56339       -0.00000
     3 
Profile.  56 HEAT OF FORMATION =    101.110 KCAL
    H       -0.93510       -0.93796       -0.00000
    C        0.20238       -0.57995       -0.00000
    N       -0.10626        0.56481       -0.00000
     3 
Profile.  57 HEAT OF FORMATION =    98.046 KCAL
    H       -0.91434       -0.97345       -0.00000
    C        0.19757       -0.57858       -0.00000
    N       -0.10362        0.56619       -0.00000
     3 
Profile.  58 HEAT OF FORMATION =    94.709 KCAL
    H       -0.89198       -1.00973       -0.00000
    C        0.19252       -0.57718       -0.00000
    N       -0.10091        0.56760       -0.00000
     3 
Profile.  59 HEAT OF FORMATION =    91.313 KCAL
    H       -0.86919       -1.04480       -0.00000
    C        0.18751       -0.57584       -0.00000
    N       -0.09825        0.56898       -0.00000
     3 
Profile.  60 HEAT OF FORMATION =    87.838 KCAL
    H       -0.84559       -1.07930       -0.00000
    C        0.18245       -0.57454       -0.00000
    N       -0.09561        0.57034       -0.00000
     3 
Profile.  61 HEAT OF FORMATION =    84.598 KCAL
    H       -0.82314       -1.11052       -0.00000
    C        0.17773       -0.57336       -0.00000
    N       -0.09318        0.57158       -0.00000
     3 
Profile.  62 HEAT OF FORMATION =    81.599 KCAL
    H       -0.80185       -1.13884       -0.00000
    C        0.17334       -0.57230       -0.00000
    N       -0.09095        0.57271       -0.00000
     3 
Profile.  63 HEAT OF FORMATION =    77.268 KCAL
    H       -0.76990       -1.17894       -0.00000
    C        0.16690       -0.57081       -0.00000
    N       -0.08772        0.57431       -0.00000
     3 
Profile.  64 HEAT OF FORMATION =    73.784 KCAL
    H       -0.74295       -1.21070       -0.00000
    C        0.16159       -0.56964       -0.00000
    N       -0.08511        0.57559       -0.00000
     3 
Profile.  65 HEAT OF FORMATION =    70.358 KCAL
    H       -0.71515       -1.24168       -0.00000
    C        0.15622       -0.56851       -0.00000
    N       -0.08250        0.57685       -0.00000
     3 
Profile.  66 HEAT OF FORMATION =    67.008 KCAL
    H       -0.68651       -1.27181       -0.00000
    C        0.15078       -0.56742       -0.00000
    N       -0.07990        0.57809       -0.00000
     3 
Profile.  67 HEAT OF FORMATION =    63.749 KCAL
    H       -0.65702       -1.30106       -0.00000
    C        0.14527       -0.56637       -0.00000
    N       -0.07730        0.57929       -0.00000
     3 
Profile.  68 HEAT OF FORMATION =    60.595 KCAL
    H       -0.62668       -1.32935       -0.00000
    C        0.13970       -0.56537       -0.00000
    N       -0.07470        0.58047       -0.00000
     3 
Profile.  69 HEAT OF FORMATION =    57.558 KCAL
    H       -0.59548       -1.35662       -0.00000
    C        0.13406       -0.56442       -0.00000
    N       -0.07211        0.58162       -0.00000
     3 
Profile.  70 HEAT OF FORMATION =    54.648 KCAL
    H       -0.56343       -1.38282       -0.00000
    C        0.12834       -0.56353       -0.00000
    N       -0.06951        0.58274       -0.00000
     3 
Profile.  71 HEAT OF FORMATION =    51.872 KCAL
    H       -0.53054       -1.40788       -0.00000
    C        0.12256       -0.56269       -0.00000
    N       -0.06692        0.58383       -0.00000
     3 
Profile.  72 HEAT OF FORMATION =    49.240 KCAL
    H       -0.49682       -1.43172       -0.00000
    C        0.11671       -0.56192       -0.00000
    N       -0.06433        0.58488       -0.00000
     3 
Profile.  73 HEAT OF FORMATION =    46.758 KCAL
    H       -0.46229       -1.45428       -0.00000
    C        0.11079       -0.56120       -0.00000
    N       -0.06174        0.58589       -0.00000
     3 
Profile.  74 HEAT OF FORMATION =    44.430 KCAL
    H       -0.42696       -1.47550       -0.00000
    C        0.10480       -0.56056       -0.00000
    N       -0.05914        0.58686       -0.00000
     3 
Profile.  75 HEAT OF FORMATION =    42.263 KCAL
    H       -0.39088       -1.49529       -0.00000
    C        0.09874       -0.55998       -0.00000
    N       -0.05654        0.58779       -0.00000
     3 
Profile.  76 HEAT OF FORMATION =    40.260 KCAL
    H       -0.35407       -1.51360       -0.00000
    C        0.09262       -0.55947       -0.00000
    N       -0.05394        0.58867       -0.00000
     3 
Profile.  77 HEAT OF FORMATION =    38.425 KCAL
    H       -0.31658       -1.53036       -0.00000
    C        0.08643       -0.55904       -0.00000
    N       -0.05134        0.58951       -0.00000
     3 
Profile.  78 HEAT OF FORMATION =    36.761 KCAL
    H       -0.27846       -1.54551       -0.00000
    C        0.08019       -0.55867       -0.00000
    N       -0.04873        0.59028       -0.00000
     3 
Profile.  79 HEAT OF FORMATION =    35.272 KCAL
    H       -0.23975       -1.55898       -0.00000
    C        0.07389       -0.55838       -0.00000
    N       -0.04611        0.59101       -0.00000
     3 
Profile.  80 HEAT OF FORMATION =    33.959 KCAL
    H       -0.20053       -1.57073       -0.00000
    C        0.06755       -0.55817       -0.00000
    N       -0.04349        0.59166       -0.00000
     3 
Profile.  81 HEAT OF FORMATION =    32.825 KCAL
    H       -0.16084       -1.58070       -0.00000
    C        0.06116       -0.55802       -0.00000
    N       -0.04087        0.59226       -0.00000
     3 
Profile.  82 HEAT OF FORMATION =    31.872 KCAL
    H       -0.12078       -1.58885       -0.00000
    C        0.05473       -0.55795       -0.00000
    N       -0.03824        0.59278       -0.00000
     3 
Profile.  83 HEAT OF FORMATION =    31.101 KCAL
    H       -0.08040       -1.59513       -0.00000
    C        0.04827       -0.55795       -0.00000
    N       -0.03560        0.59323       -0.00000
     3 
Profile.  84 HEAT OF FORMATION =    30.513 KCAL
    H       -0.03979       -1.59951       -0.00000
    C        0.04178       -0.55802       -0.00000
    N       -0.03296        0.59361       -0.00000
     3 
Profile.  85 HEAT OF FORMATION =    30.110 KCAL
    H        0.00093       -1.60197       -0.00000
    C        0.03528       -0.55815       -0.00000
    N       -0.03032        0.59390       -0.00000
     3 
Profile.  86 HEAT OF FORMATION =    29.890 KCAL
    H        0.04180       -1.60250       -0.00000
    C        0.02876       -0.55836       -0.00000
    N       -0.02767        0.59411       -0.00000
