    10 
Profile.1 HEAT OF FORMATION =    39.807 KCAL 
    C       -0.00740        0.11337        0.01763
    C        2.13683        1.51720       -0.02736
    H       -0.67987       -0.47118        0.61991
    H       -0.51630        0.83397       -0.59812
    H        1.73455       -0.15659        1.33835
    H        1.77503        1.88937       -0.99517
    H        2.07941        2.36504        0.67598
    H        3.20072        1.26619       -0.14355
    C        1.35102        0.37084        0.48029
    H        0.89219       -0.57237       -0.58886
    10 
Profile.2 HEAT OF FORMATION =    40.701 KCAL 
    C       -0.00798        0.11459        0.01925
    C        2.13645        1.51654       -0.02809
    H       -0.67960       -0.47141        0.62034
    H       -0.51623        0.83269       -0.59872
    H        1.73432       -0.15593        1.33712
    H        1.77665        1.89006       -0.99636
    H        2.07914        2.36347        0.67751
    H        3.20020        1.26735       -0.14339
    C        1.35103        0.36828        0.47692
    H        0.90295       -0.57276       -0.58632
    10 
Profile.3 HEAT OF FORMATION =    41.609 KCAL 
    C       -0.00845        0.11630        0.02139
    C        2.13662        1.51631       -0.02877
    H       -0.67941       -0.47185        0.62059
    H       -0.51637        0.83166       -0.60010
    H        1.73423       -0.15547        1.33643
    H        1.77761        1.89092       -0.99643
    H        2.07810        2.36175        0.67794
    H        3.20062        1.26774       -0.14340
    C        1.35115        0.36594        0.47395
    H        0.91460       -0.57297       -0.58365
    10 
Profile.4 HEAT OF FORMATION =    42.520 KCAL 
    C       -0.00876        0.11836        0.02358
    C        2.13674        1.51631       -0.02955
    H       -0.67933       -0.47245        0.62070
    H       -0.51644        0.83059       -0.60117
    H        1.73412       -0.15492        1.33576
    H        1.77850        1.89164       -0.99613
    H        2.07692        2.35969        0.67780
    H        3.20120        1.26815       -0.14333
    C        1.35102        0.36426        0.47152
    H        0.92773       -0.57342       -0.58030
    10 
Profile.5 HEAT OF FORMATION =    43.420 KCAL 
    C       -0.00915        0.12063        0.02603
    C        2.13701        1.51561       -0.03026
    H       -0.67899       -0.47304        0.62054
    H       -0.51624        0.82962       -0.60227
    H        1.73395       -0.15439        1.33530
    H        1.77914        1.89230       -0.99651
    H        2.07566        2.35803        0.67860
    H        3.20157        1.26861       -0.14378
    C        1.35145        0.36124        0.46789
    H        0.94023       -0.57384       -0.57824
    10 
Profile.6 HEAT OF FORMATION =    44.293 KCAL 
    C       -0.00988        0.12253        0.02856
    C        2.13725        1.51528       -0.03085
    H       -0.67832       -0.47311        0.62035
    H       -0.51558        0.82885       -0.60347
    H        1.73378       -0.15408        1.33480
    H        1.77958        1.89306       -0.99716
    H        2.07435        2.35582        0.67896
    H        3.20178        1.26902       -0.14353
    C        1.35204        0.35813        0.46437
    H        0.95322       -0.57434       -0.57527
    10 
Profile.7 HEAT OF FORMATION =    45.116 KCAL 
    C       -0.01031        0.12519        0.03117
    C        2.13767        1.51446       -0.03160
    H       -0.67843       -0.47380        0.61987
    H       -0.51519        0.82747       -0.60420
    H        1.73362       -0.15313        1.33478
    H        1.78027        1.89353       -0.99805
    H        2.07277        2.35384        0.67970
    H        3.20256        1.26981       -0.14400
    C        1.35240        0.35532        0.46125
    H        0.96754       -0.57526       -0.57201
    10 
Profile.8 HEAT OF FORMATION =    45.863 KCAL 
    C       -0.01077        0.12745        0.03396
    C        2.13781        1.51387       -0.03241
    H       -0.67788       -0.47420        0.62006
    H       -0.51451        0.82678       -0.60594
    H        1.73328       -0.15246        1.33436
    H        1.78085        1.89380       -0.99788
    H        2.07129        2.35173        0.67973
    H        3.20288        1.27039       -0.14422
    C        1.35316        0.35162        0.45714
    H        0.98219       -0.57663       -0.56992
    10 
Profile.9 HEAT OF FORMATION =    46.503 KCAL 
    C       -0.01142        0.13023        0.03676
    C        2.13835        1.51293       -0.03365
    H       -0.67785       -0.47498        0.62015
    H       -0.51393        0.82567       -0.60725
    H        1.73309       -0.15163        1.33432
    H        1.78145        1.89436       -0.99864
    H        2.06947        2.34947        0.68070
    H        3.20381        1.27132       -0.14472
    C        1.35394        0.34797        0.45364
    H        0.99709       -0.57730       -0.56552
    10 
Profile.10 HEAT OF FORMATION =    46.990 KCAL 
    C       -0.01230        0.13297        0.03966
    C        2.13889        1.51174       -0.03474
    H       -0.67749       -0.47555        0.62015
    H       -0.51326        0.82457       -0.60869
    H        1.73283       -0.15083        1.33427
    H        1.78204        1.89489       -0.99969
    H        2.06774        2.34727        0.68176
    H        3.20451        1.27230       -0.14506
    C        1.35513        0.34373        0.44912
    H        1.01227       -0.57860       -0.56199
    10 
Profile.11 HEAT OF FORMATION =    47.288 KCAL 
    C       -0.01328        0.13567        0.04293
    C        2.13954        1.51119       -0.03542
    H       -0.67769       -0.47618        0.62003
    H       -0.51256        0.82307       -0.61081
    H        1.73264       -0.14982        1.33431
    H        1.78277        1.89543       -0.99967
    H        2.06589        2.34438        0.68223
    H        3.20564        1.27362       -0.14594
    C        1.35651        0.33959        0.44508
    H        1.02856       -0.57951       -0.55746
    10 
Profile.12 HEAT OF FORMATION =    47.356 KCAL 
    C       -0.01449        0.13876        0.04620
    C        2.14018        1.51038       -0.03658
    H       -0.67781       -0.47700        0.61999
    H       -0.51185        0.82183       -0.61245
    H        1.73253       -0.14915        1.33422
    H        1.78353        1.89585       -1.00028
    H        2.06408        2.34177        0.68304
    H        3.20680        1.27492       -0.14648
    C        1.35804        0.33534        0.44099
    H        1.04531       -0.58030       -0.55151
    10 
Profile.13 HEAT OF FORMATION =    47.148 KCAL 
    C       -0.01629        0.14185        0.04969
    C        2.14092        1.51009       -0.03759
    H       -0.67753       -0.47745        0.61970
    H       -0.51088        0.82051       -0.61433
    H        1.73251       -0.14861        1.33417
    H        1.78412        1.89627       -1.00008
    H        2.06231        2.33847        0.68329
    H        3.20780        1.27624       -0.14718
    C        1.36001        0.33040        0.43609
    H        1.06207       -0.58029       -0.54601
    10 
Profile.14 HEAT OF FORMATION =    46.658 KCAL 
    C       -0.01807        0.14510        0.05314
    C        2.14176        1.50904       -0.03854
    H       -0.67736       -0.47819        0.61977
    H       -0.51019        0.81927       -0.61607
    H        1.73258       -0.14809        1.33383
    H        1.78487        1.89669       -1.00129
    H        2.06034        2.33565        0.68447
    H        3.20902        1.27788       -0.14764
    C        1.36209        0.32555        0.43132
    H        1.08012       -0.58004       -0.53902
    10 
Profile.15 HEAT OF FORMATION =    45.862 KCAL 
    C       -0.01984        0.14844        0.05658
    C        2.14256        1.50821       -0.03960
    H       -0.67711       -0.47958        0.62029
    H       -0.50971        0.81883       -0.61798
    H        1.73277       -0.14761        1.33350
    H        1.78579        1.89671       -1.00182
    H        2.05817        2.33286        0.68488
    H        3.21031        1.27949       -0.14818
    C        1.36512        0.31969        0.42589
    H        1.09905       -0.57886       -0.53268
    10 
Profile.16 HEAT OF FORMATION =    44.762 KCAL 
    C       -0.02197        0.15184        0.06012
    C        2.14325        1.50719       -0.04097
    H       -0.67659       -0.48066        0.62056
    H       -0.50900        0.81833       -0.61941
    H        1.73320       -0.14733        1.33291
    H        1.78664        1.89672       -1.00287
    H        2.05583        2.33004        0.68576
    H        3.21158        1.28123       -0.14844
    C        1.36785        0.31407        0.42018
    H        1.11899       -0.57755       -0.52488
    10 
Profile.17 HEAT OF FORMATION =    43.375 KCAL 
    C       -0.02419        0.15506        0.06376
    C        2.14402        1.50632       -0.04217
    H       -0.67632       -0.48189        0.62106
    H       -0.50848        0.81820       -0.62090
    H        1.73384       -0.14703        1.33221
    H        1.78783        1.89645       -1.00363
    H        2.05311        2.32689        0.68631
    H        3.21314        1.28336       -0.14899
    C        1.37099        0.30811        0.41430
    H        1.14058       -0.57588       -0.51698
    10 
Profile.18 HEAT OF FORMATION =    41.729 KCAL 
    C       -0.02642        0.15826        0.06712
    C        2.14483        1.50530       -0.04348
    H       -0.67595       -0.48297        0.62177
    H       -0.50785        0.81819       -0.62197
    H        1.73448       -0.14671        1.33131
    H        1.78905        1.89612       -1.00471
    H        2.05013        2.32354        0.68690
    H        3.21467        1.28563       -0.14927
    C        1.37439        0.30168        0.40804
    H        1.16371       -0.57491       -0.50861
    10 
Profile.19 HEAT OF FORMATION =    39.863 KCAL 
    C       -0.02860        0.16136        0.07024
    C        2.14588        1.50450       -0.04475
    H       -0.67564       -0.48382        0.62238
    H       -0.50736        0.81831       -0.62193
    H        1.73516       -0.14642        1.33045
    H        1.79052        1.89559       -1.00603
    H        2.04664        2.31953        0.68677
    H        3.21636        1.28832       -0.14948
    C        1.37856        0.29457        0.40148
    H        1.18863       -0.57579       -0.49983
    10 
Profile.20 HEAT OF FORMATION =    37.820 KCAL 
    C       -0.03032        0.16442        0.07356
    C        2.14631        1.50322       -0.04647
    H       -0.67489       -0.48447        0.62362
    H       -0.50675        0.81928       -0.62210
    H        1.73604       -0.14661        1.32859
    H        1.79142        1.89538       -1.00712
    H        2.04341        2.31557        0.68746
    H        3.21775        1.29057       -0.14988
    C        1.38236        0.28744        0.39433
    H        1.21526       -0.57617       -0.49240
