     4 
Profile.   1 HEAT OF FORMATION =   -25.423 KCAL
    O       -0.60141        0.00112        0.00000
    C        0.60297       -0.00224       -0.00000
    H        1.17257        0.94636       -0.00002
    H        1.19000       -0.93620        0.00002
     4 
Profile.   2 HEAT OF FORMATION =   -25.369 KCAL
    O       -0.60133        0.00282        0.00000
    C        0.60309       -0.00556       -0.00000
    H        1.15769        0.95176       -0.00002
    H        1.20213       -0.92908        0.00002
     4 
Profile.   3 HEAT OF FORMATION =   -25.259 KCAL
    O       -0.60126        0.00450        0.00000
    C        0.60329       -0.00882       -0.00000
    H        1.14262        0.95648       -0.00002
    H        1.21358       -0.92156        0.00002
     4 
Profile.   4 HEAT OF FORMATION =   -25.093 KCAL
    O       -0.60120        0.00612        0.00000
    C        0.60355       -0.01198       -0.00000
    H        1.12759        0.96054       -0.00002
    H        1.22429       -0.91378        0.00002
     4 
Profile.   5 HEAT OF FORMATION =   -24.875 KCAL
    O       -0.60114        0.00769        0.00000
    C        0.60388       -0.01501       -0.00000
    H        1.11282        0.96401       -0.00002
    H        1.23420       -0.90590        0.00002
     4 
Profile.   6 HEAT OF FORMATION =   -24.611 KCAL
    O       -0.60109        0.00917        0.00000
    C        0.60424       -0.01789       -0.00000
    H        1.09858        0.96696       -0.00002
    H        1.24329       -0.89811        0.00002
     4 
Profile.   7 HEAT OF FORMATION =   -24.311 KCAL
    O       -0.60106        0.01055        0.00000
    C        0.60462       -0.02058       -0.00000
    H        1.08511        0.96950       -0.00002
    H        1.25155       -0.89060        0.00002
     4 
Profile.   8 HEAT OF FORMATION =   -23.987 KCAL
    O       -0.60103        0.01182        0.00000
    C        0.60501       -0.02305       -0.00000
    H        1.07263        0.97172       -0.00002
    H        1.25898       -0.88353        0.00002
     4 
Profile.   9 HEAT OF FORMATION =   -23.655 KCAL
    O       -0.60102        0.01297        0.00000
    C        0.60537       -0.02528       -0.00000
    H        1.06138        0.97371       -0.00002
    H        1.26560       -0.87711        0.00002
     4 
Profile.  10 HEAT OF FORMATION =   -23.333 KCAL
    O       -0.60103        0.01398        0.00000
    C        0.60571       -0.02726       -0.00000
    H        1.05154        0.97557       -0.00002
    H        1.27143       -0.87147        0.00002
     4 
Profile.  11 HEAT OF FORMATION =   -23.040 KCAL
    O       -0.60104        0.01484        0.00000
    C        0.60599       -0.02894       -0.00000
    H        1.04329        0.97737       -0.00002
    H        1.27650       -0.86679        0.00002
     4 
Profile.  12 HEAT OF FORMATION =   -22.791 KCAL
    O       -0.60107        0.01553        0.00000
    C        0.60621       -0.03033       -0.00000
    H        1.03678        0.97916       -0.00002
    H        1.28079       -0.86316        0.00002
     4 
Profile.  13 HEAT OF FORMATION =   -22.597 KCAL
    O       -0.60112        0.01606        0.00000
    C        0.60636       -0.03139       -0.00000
    H        1.03210        0.98093       -0.00002
    H        1.28432       -0.86065        0.00002
     4 
Profile.  14 HEAT OF FORMATION =   -22.470 KCAL
    O       -0.60117        0.01642        0.00000
    C        0.60644       -0.03213        0.00000
    H        1.02931        0.98267       -0.00002
    H        1.28706       -0.85930        0.00002
     4 
Profile.  15 HEAT OF FORMATION =   -22.414 KCAL
    O       -0.60123        0.01659        0.00000
    C        0.60643       -0.03251        0.00000
    H        1.02844        0.98430       -0.00002
    H        1.28896       -0.85910        0.00002
     4 
Profile.  16 HEAT OF FORMATION =   -22.430 KCAL
    O       -0.60130        0.01658        0.00000
    C        0.60635       -0.03255        0.00000
    H        1.02947        0.98574       -0.00002
    H        1.28995       -0.86003        0.00002
     4 
Profile.  17 HEAT OF FORMATION =   -22.512 KCAL
    O       -0.60137        0.01640        0.00000
    C        0.60621       -0.03223        0.00000
    H        1.03233        0.98690       -0.00002
    H        1.29001       -0.86199        0.00002
     4 
Profile.  18 HEAT OF FORMATION =   -22.654 KCAL
    O       -0.60145        0.01603        0.00000
    C        0.60600       -0.03157        0.00000
    H        1.03692        0.98767       -0.00001
    H        1.28908       -0.86489        0.00002
     4 
Profile.  19 HEAT OF FORMATION =   -22.848 KCAL
    O       -0.60153        0.01549        0.00000
    C        0.60575       -0.03056        0.00000
    H        1.04314        0.98794       -0.00001
    H        1.28709       -0.86862        0.00001
     4 
Profile.  20 HEAT OF FORMATION =   -23.084 KCAL
    O       -0.60160        0.01479        0.00000
    C        0.60546       -0.02923        0.00000
    H        1.05085        0.98759       -0.00001
    H        1.28398       -0.87305        0.00001
     4 
Profile.  21 HEAT OF FORMATION =   -23.352 KCAL
    O       -0.60167        0.01393        0.00000
    C        0.60516       -0.02757        0.00000
    H        1.05989        0.98652       -0.00001
    H        1.27971       -0.87805        0.00001
     4 
Profile.  22 HEAT OF FORMATION =   -23.643 KCAL
    O       -0.60174        0.01291        0.00000
    C        0.60485       -0.02562        0.00000
    H        1.07008        0.98464       -0.00001
    H        1.27424       -0.88347        0.00001
     4 
Profile.  23 HEAT OF FORMATION =   -23.944 KCAL
    O       -0.60180        0.01177        0.00000
    C        0.60455       -0.02338       -0.00000
    H        1.08125        0.98188       -0.00001
    H        1.26754       -0.88917        0.00001
     4 
Profile.  24 HEAT OF FORMATION =   -24.247 KCAL
    O       -0.60185        0.01049        0.00000
    C        0.60428       -0.02088       -0.00000
    H        1.09321        0.97821       -0.00001
    H        1.25964       -0.89505        0.00001
     4 
Profile.  25 HEAT OF FORMATION =   -24.540 KCAL
    O       -0.60189        0.00911        0.00000
    C        0.60404       -0.01816       -0.00000
    H        1.10578        0.97363       -0.00001
    H        1.25056       -0.90099        0.00001
     4 
Profile.  26 HEAT OF FORMATION =   -24.813 KCAL
    O       -0.60192        0.00762        0.00000
    C        0.60384       -0.01523       -0.00000
    H        1.11879        0.96815       -0.00001
    H        1.24037       -0.90689        0.00001
     4 
Profile.  27 HEAT OF FORMATION =   -25.054 KCAL
    O       -0.60194        0.00606        0.00000
    C        0.60370       -0.01214       -0.00000
    H        1.13208        0.96184       -0.00001
    H        1.22915       -0.91270        0.00001
     4 
Profile.  28 HEAT OF FORMATION =   -25.252 KCAL
    O       -0.60195        0.00443        0.00000
    C        0.60360       -0.00891       -0.00000
    H        1.14548        0.95480       -0.00001
    H        1.21702       -0.91835        0.00001
     4 
Profile.  29 HEAT OF FORMATION =   -25.399 KCAL
    O       -0.60195        0.00276        0.00000
    C        0.60357       -0.00558       -0.00000
    H        1.15886        0.94714       -0.00001
    H        1.20411       -0.92382        0.00001
     4 
Profile.  30 HEAT OF FORMATION =   -25.486 KCAL
    O       -0.60195        0.00105        0.00000
    C        0.60358       -0.00219       -0.00000
    H        1.17209        0.93900       -0.00001
    H        1.19059       -0.92910        0.00001
     4 
Profile.  31 HEAT OF FORMATION =   -25.508 KCAL
    O       -0.60193       -0.00066        0.00000
    C        0.60364        0.00123       -0.00000
    H        1.18507        0.93056       -0.00001
    H        1.17664       -0.93419        0.00001
     4 
Profile.  32 HEAT OF FORMATION =   -25.462 KCAL
    O       -0.60191       -0.00237        0.00000
    C        0.60375        0.00464       -0.00000
    H        1.19771        0.92198       -0.00001
    H        1.16243       -0.93910        0.00001
     4 
Profile.  33 HEAT OF FORMATION =   -25.350 KCAL
    O       -0.60189       -0.00406        0.00000
    C        0.60388        0.00800       -0.00000
    H        1.20992        0.91345       -0.00001
    H        1.14817       -0.94386        0.00001
     4 
Profile.  34 HEAT OF FORMATION =   -25.175 KCAL
    O       -0.60186       -0.00571        0.00000
    C        0.60404        0.01128       -0.00000
    H        1.22164        0.90514       -0.00001
    H        1.13407       -0.94849        0.00001
     4 
Profile.  35 HEAT OF FORMATION =   -24.946 KCAL
    O       -0.60183       -0.00730        0.00000
    C        0.60421        0.01443       -0.00000
    H        1.23280        0.89721       -0.00001
    H        1.12032       -0.95301        0.00001
     4 
Profile.  36 HEAT OF FORMATION =   -24.674 KCAL
    O       -0.60179       -0.00881        0.00000
    C        0.60439        0.01743       -0.00000
    H        1.24334        0.88982       -0.00001
    H        1.10711       -0.95744        0.00001
     4 
Profile.  37 HEAT OF FORMATION =   -24.371 KCAL
    O       -0.60176       -0.01023        0.00000
    C        0.60456        0.02025       -0.00000
    H        1.25320        0.88311       -0.00001
    H        1.09464       -0.96178        0.00001
     4 
Profile.  38 HEAT OF FORMATION =   -24.051 KCAL
    O       -0.60172       -0.01154        0.00000
    C        0.60471        0.02285       -0.00000
    H        1.26234        0.87717       -0.00001
    H        1.08305       -0.96602        0.00001
     4 
Profile.  39 HEAT OF FORMATION =   -23.729 KCAL
    O       -0.60169       -0.01273        0.00000
    C        0.60485        0.02520       -0.00000
    H        1.27068        0.87209       -0.00001
    H        1.07253       -0.97014        0.00001
     4 
Profile.  40 HEAT OF FORMATION =   -23.418 KCAL
    O       -0.60165       -0.01378        0.00000
    C        0.60496        0.02728       -0.00000
    H        1.27815        0.86792       -0.00001
    H        1.06319       -0.97410        0.00001
     4 
Profile.  41 HEAT OF FORMATION =   -23.130 KCAL
    O       -0.60162       -0.01469        0.00000
    C        0.60505        0.02907       -0.00000
    H        1.28470        0.86470       -0.00001
    H        1.05515       -0.97785        0.00001
     4 
Profile.  42 HEAT OF FORMATION =   -22.878 KCAL
    O       -0.60160       -0.01544        0.00000
    C        0.60510        0.03055       -0.00000
    H        1.29024        0.86241       -0.00001
    H        1.04850       -0.98130        0.00001
     4 
Profile.  43 HEAT OF FORMATION =   -22.673 KCAL
    O       -0.60157       -0.01603        0.00000
    C        0.60513        0.03171       -0.00000
    H        1.29469        0.86103       -0.00001
    H        1.04332       -0.98439        0.00001
     4 
Profile.  44 HEAT OF FORMATION =   -22.521 KCAL
    O       -0.60155       -0.01644        0.00000
    C        0.60514        0.03252       -0.00000
    H        1.29797        0.86052       -0.00001
    H        1.03965       -0.98702        0.00001
     4 
Profile.  45 HEAT OF FORMATION =   -22.430 KCAL
    O       -0.60153       -0.01668        0.00000
    C        0.60512        0.03299       -0.00000
    H        1.30003        0.86083       -0.00001
    H        1.03750       -0.98911        0.00001
     4 
Profile.  46 HEAT OF FORMATION =   -22.404 KCAL
    O       -0.60152       -0.01674        0.00000
    C        0.60509        0.03310       -0.00000
    H        1.30079        0.86189       -0.00001
    H        1.03690       -0.99058        0.00001
     4 
Profile.  47 HEAT OF FORMATION =   -22.443 KCAL
    O       -0.60151       -0.01662        0.00000
    C        0.60505        0.03286       -0.00000
    H        1.30021        0.86364       -0.00001
    H        1.03784       -0.99135        0.00000
     4 
Profile.  48 HEAT OF FORMATION =   -22.549 KCAL
    O       -0.60150       -0.01632        0.00000
    C        0.60499        0.03227       -0.00000
    H        1.29827        0.86600       -0.00001
    H        1.04026       -0.99138        0.00000
     4 
Profile.  49 HEAT OF FORMATION =   -22.715 KCAL
    O       -0.60149       -0.01585        0.00000
    C        0.60494        0.03133       -0.00000
    H        1.29495        0.86892       -0.00000
    H        1.04413       -0.99063        0.00000
     4 
Profile.  50 HEAT OF FORMATION =   -22.936 KCAL
    O       -0.60149       -0.01521        0.00000
    C        0.60488        0.03005       -0.00000
    H        1.29027        0.87234       -0.00000
    H        1.04939       -0.98908        0.00000
     4 
Profile.  51 HEAT OF FORMATION =   -23.202 KCAL
    O       -0.60148       -0.01440        0.00000
    C        0.60483        0.02846       -0.00000
    H        1.28426        0.87622       -0.00000
    H        1.05595       -0.98675        0.00000
     4 
Profile.  52 HEAT OF FORMATION =   -23.502 KCAL
    O       -0.60148       -0.01344        0.00000
    C        0.60479        0.02656        0.00000
    H        1.27697        0.88050       -0.00000
    H        1.06375       -0.98364        0.00000
     4 
Profile.  53 HEAT OF FORMATION =   -23.824 KCAL
    O       -0.60148       -0.01234        0.00000
    C        0.60475        0.02438        0.00000
    H        1.26848        0.88516       -0.00000
    H        1.07268       -0.97981        0.00000
     4 
Profile.  54 HEAT OF FORMATION =   -24.151 KCAL
    O       -0.60148       -0.01110        0.00000
    C        0.60472        0.02193        0.00000
    H        1.25888        0.89017       -0.00000
    H        1.08263       -0.97532        0.00000
     4 
Profile.  55 HEAT OF FORMATION =   -24.471 KCAL
    O       -0.60148       -0.00975        0.00000
    C        0.60470        0.01926        0.00000
    H        1.24828        0.89549       -0.00000
    H        1.09351       -0.97023        0.00000
     4 
Profile.  56 HEAT OF FORMATION =   -24.769 KCAL
    O       -0.60148       -0.00829        0.00000
    C        0.60468        0.01637        0.00000
    H        1.23680        0.90111       -0.00000
    H        1.10519       -0.96465        0.00000
     4 
Profile.  57 HEAT OF FORMATION =   -25.031 KCAL
    O       -0.60148       -0.00674        0.00000
    C        0.60467        0.01331        0.00000
    H        1.22458        0.90700       -0.00000
    H        1.11755       -0.95866        0.00000
     4 
Profile.  58 HEAT OF FORMATION =   -25.248 KCAL
    O       -0.60148       -0.00512        0.00000
    C        0.60467        0.01011        0.00000
    H        1.21176        0.91313       -0.00000
    H        1.13046       -0.95237        0.00000
     4 
Profile.  59 HEAT OF FORMATION =   -25.409 KCAL
    O       -0.60148       -0.00345        0.00000
    C        0.60466        0.00681        0.00000
    H        1.19849        0.91947       -0.00000
    H        1.14378       -0.94587        0.00000
     4 
Profile.  60 HEAT OF FORMATION =   -25.509 KCAL
    O       -0.60148       -0.00173        0.00000
    C        0.60466        0.00342        0.00000
    H        1.18489        0.92597       -0.00000
    H        1.15740       -0.93924        0.00000
     4 
Profile.  61 HEAT OF FORMATION =   -25.542 KCAL
    O       -0.60148        0.00000       -0.00000
    C        0.60466        0.00000       -0.00000
    H        1.17115        0.93259       -0.00000
    H        1.17115       -0.93259        0.00000
     4 
Profile.  62 HEAT OF FORMATION =   -25.509 KCAL
    O       -0.60148        0.00173        0.00000
    C        0.60466       -0.00342       -0.00000
    H        1.15740        0.93924        0.00000
    H        1.18489       -0.92597        0.00000
     4 
Profile.  63 HEAT OF FORMATION =   -25.409 KCAL
    O       -0.60148        0.00345        0.00000
    C        0.60466       -0.00681       -0.00000
    H        1.14378        0.94587        0.00000
    H        1.19849       -0.91947        0.00000
     4 
Profile.  64 HEAT OF FORMATION =   -25.248 KCAL
    O       -0.60148        0.00512        0.00000
    C        0.60467       -0.01011       -0.00000
    H        1.13047        0.95237        0.00000
    H        1.21175       -0.91313        0.00000
     4 
Profile.  65 HEAT OF FORMATION =   -25.031 KCAL
    O       -0.60148        0.00674        0.00000
    C        0.60467       -0.01332       -0.00000
    H        1.11756        0.95867        0.00000
    H        1.22457       -0.90700        0.00000
     4 
Profile.  66 HEAT OF FORMATION =   -24.769 KCAL
    O       -0.60148        0.00829        0.00000
    C        0.60468       -0.01638       -0.00000
    H        1.10520        0.96466        0.00000
    H        1.23679       -0.90111        0.00000
     4 
Profile.  67 HEAT OF FORMATION =   -24.471 KCAL
    O       -0.60148        0.00975        0.00000
    C        0.60470       -0.01926       -0.00000
    H        1.09353        0.97024        0.00000
    H        1.24826       -0.89548        0.00000
     4 
Profile.  68 HEAT OF FORMATION =   -24.151 KCAL
    O       -0.60148        0.01111        0.00000
    C        0.60472       -0.02194       -0.00000
    H        1.08266        0.97532        0.00000
    H        1.25886       -0.89016        0.00000
     4 
Profile.  69 HEAT OF FORMATION =   -23.824 KCAL
    O       -0.60148        0.01234        0.00000
    C        0.60475       -0.02439       -0.00000
    H        1.07270        0.97982        0.00000
    H        1.26845       -0.88515        0.00000
     4 
Profile.  70 HEAT OF FORMATION =   -23.503 KCAL
    O       -0.60148        0.01345        0.00000
    C        0.60479       -0.02657       -0.00000
    H        1.06378        0.98365        0.00000
    H        1.27694       -0.88049        0.00000
     4 
Profile.  71 HEAT OF FORMATION =   -23.203 KCAL
    O       -0.60148        0.01441        0.00000
    C        0.60483       -0.02847       -0.00000
    H        1.05599        0.98676        0.00000
    H        1.28422       -0.87621       -0.00000
     4 
Profile.  72 HEAT OF FORMATION =   -22.936 KCAL
    O       -0.60149        0.01522        0.00000
    C        0.60488       -0.03007       -0.00000
    H        1.04943        0.98909       -0.00000
    H        1.29022       -0.87234       -0.00000
     4 
Profile.  73 HEAT OF FORMATION =   -22.715 KCAL
    O       -0.60149        0.01586        0.00000
    C        0.60494       -0.03134       -0.00000
    H        1.04418        0.99064       -0.00000
    H        1.29490       -0.86892       -0.00000
     4 
Profile.  74 HEAT OF FORMATION =   -22.549 KCAL
    O       -0.60150        0.01634        0.00000
    C        0.60499       -0.03228       -0.00000
    H        1.04031        0.99138       -0.00000
    H        1.29821       -0.86600       -0.00000
     4 
Profile.  75 HEAT OF FORMATION =   -22.444 KCAL
    O       -0.60150        0.01664        0.00000
    C        0.60504       -0.03288       -0.00000
    H        1.03789        0.99135       -0.00000
    H        1.30015       -0.86364       -0.00000
     4 
Profile.  76 HEAT OF FORMATION =   -22.404 KCAL
    O       -0.60152        0.01676        0.00000
    C        0.60509       -0.03312       -0.00000
    H        1.03696        0.99057       -0.00000
    H        1.30073       -0.86190       -0.00000
     4 
Profile.  77 HEAT OF FORMATION =   -22.430 KCAL
    O       -0.60153        0.01670        0.00000
    C        0.60512       -0.03301       -0.00000
    H        1.03756        0.98909       -0.00000
    H        1.29996       -0.86084       -0.00000
     4 
Profile.  78 HEAT OF FORMATION =   -22.522 KCAL
    O       -0.60155        0.01646        0.00000
    C        0.60514       -0.03255       -0.00000
    H        1.03971        0.98697       -0.00000
    H        1.29790       -0.86053       -0.00000
     4 
Profile.  79 HEAT OF FORMATION =   -22.673 KCAL
    O       -0.60157        0.01605        0.00000
    C        0.60513       -0.03174       -0.00000
    H        1.04339        0.98433       -0.00000
    H        1.29461       -0.86105       -0.00000
     4 
Profile.  80 HEAT OF FORMATION =   -22.879 KCAL
    O       -0.60159        0.01547        0.00000
    C        0.60510       -0.03058       -0.00000
    H        1.04858        0.98123       -0.00000
    H        1.29015       -0.86244       -0.00000
     4 
Profile.  81 HEAT OF FORMATION =   -23.131 KCAL
    O       -0.60162        0.01472        0.00000
    C        0.60504       -0.02910       -0.00000
    H        1.05523        0.97776       -0.00000
    H        1.28461       -0.86473       -0.00000
     4 
Profile.  82 HEAT OF FORMATION =   -23.419 KCAL
    O       -0.60165        0.01381        0.00000
    C        0.60496       -0.02731       -0.00000
    H        1.06329        0.97400       -0.00000
    H        1.27806       -0.86797       -0.00000
     4 
Profile.  83 HEAT OF FORMATION =   -23.730 KCAL
    O       -0.60169        0.01276        0.00000
    C        0.60485       -0.02523       -0.00000
    H        1.07264        0.97003       -0.00000
    H        1.27057       -0.87216       -0.00000
     4 
Profile.  84 HEAT OF FORMATION =   -24.052 KCAL
    O       -0.60172        0.01158       -0.00000
    C        0.60471       -0.02288       -0.00000
    H        1.08317        0.96590       -0.00000
    H        1.26223       -0.87725       -0.00000
     4 
Profile.  85 HEAT OF FORMATION =   -24.372 KCAL
    O       -0.60176        0.01027       -0.00000
    C        0.60455       -0.02029       -0.00000
    H        1.09477        0.96165       -0.00000
    H        1.25309       -0.88320       -0.00000
     4 
Profile.  86 HEAT OF FORMATION =   -24.675 KCAL
    O       -0.60179        0.00885       -0.00000
    C        0.60438       -0.01747       -0.00000
    H        1.10726        0.95730       -0.00000
    H        1.24322       -0.88994       -0.00000
     4 
Profile.  87 HEAT OF FORMATION =   -24.947 KCAL
    O       -0.60183        0.00735       -0.00000
    C        0.60421       -0.01448       -0.00000
    H        1.12048        0.95287       -0.00000
    H        1.23267       -0.89734       -0.00000
     4 
Profile.  88 HEAT OF FORMATION =   -25.176 KCAL
    O       -0.60186        0.00576       -0.00000
    C        0.60404       -0.01133       -0.00000
    H        1.13424        0.94834       -0.00000
    H        1.22151       -0.90528       -0.00000
     4 
Profile.  89 HEAT OF FORMATION =   -25.350 KCAL
    O       -0.60189        0.00412       -0.00000
    C        0.60388       -0.00805       -0.00000
    H        1.14836        0.94371       -0.00000
    H        1.20978       -0.91361       -0.00000
     4 
Profile.  90 HEAT OF FORMATION =   -25.463 KCAL
    O       -0.60191        0.00244       -0.00000
    C        0.60374       -0.00470       -0.00000
    H        1.16262        0.93895       -0.00000
    H        1.19756       -0.92216       -0.00000
     4 
Profile.  91 HEAT OF FORMATION =   -25.508 KCAL
    O       -0.60193        0.00073       -0.00000
    C        0.60364       -0.00130       -0.00000
    H        1.17684        0.93404       -0.00000
    H        1.18491       -0.93075       -0.00000
     4 
Profile.  92 HEAT OF FORMATION =   -25.486 KCAL
    O       -0.60195       -0.00098       -0.00000
    C        0.60358        0.00212       -0.00000
    H        1.19081        0.92894       -0.00000
    H        1.17192       -0.93920       -0.00000
     4 
Profile.  93 HEAT OF FORMATION =   -25.399 KCAL
    O       -0.60195       -0.00268       -0.00000
    C        0.60356        0.00550       -0.00000
    H        1.20433        0.92366       -0.00000
    H        1.15867       -0.94734       -0.00000
     4 
Profile.  94 HEAT OF FORMATION =   -25.251 KCAL
    O       -0.60195       -0.00435       -0.00000
    C        0.60360        0.00883       -0.00000
    H        1.21725        0.91818       -0.00000
    H        1.14528       -0.95500       -0.00000
     4 
Profile.  95 HEAT OF FORMATION =   -25.052 KCAL
    O       -0.60194       -0.00597       -0.00000
    C        0.60369        0.01205       -0.00000
    H        1.22939        0.91252       -0.00000
    H        1.13187       -0.96205       -0.00000
     4 
Profile.  96 HEAT OF FORMATION =   -24.811 KCAL
    O       -0.60192       -0.00753       -0.00000
    C        0.60384        0.01514       -0.00000
    H        1.24061        0.90670       -0.00000
    H        1.11857       -0.96836       -0.00000
     4 
Profile.  97 HEAT OF FORMATION =   -24.539 KCAL
    O       -0.60189       -0.00900       -0.00000
    C        0.60404        0.01806       -0.00000
    H        1.25080        0.90078       -0.00000
    H        1.10555       -0.97384       -0.00000
     4 
Profile.  98 HEAT OF FORMATION =   -24.245 KCAL
    O       -0.60185       -0.01038       -0.00000
    C        0.60428        0.02077       -0.00000
    H        1.25988        0.89483       -0.00000
    H        1.09296       -0.97843       -0.00000
     4 
Profile.  99 HEAT OF FORMATION =   -23.943 KCAL
    O       -0.60180       -0.01165       -0.00000
    C        0.60456        0.02326       -0.00000
    H        1.26778        0.88894       -0.00000
    H        1.08099       -0.98210       -0.00000
     4 
Profile. 100 HEAT OF FORMATION =   -23.641 KCAL
    O       -0.60174       -0.01279       -0.00000
    C        0.60486        0.02549       -0.00000
    H        1.27448        0.88322       -0.00000
    H        1.06981       -0.98486       -0.00000
     4 
Profile. 101 HEAT OF FORMATION =   -23.351 KCAL
    O       -0.60168       -0.01380       -0.00000
    C        0.60517        0.02744       -0.00000
    H        1.27995        0.87778       -0.00000
    H        1.05961       -0.98674       -0.00000
     4 
Profile. 102 HEAT OF FORMATION =   -23.083 KCAL
    O       -0.60160       -0.01465       -0.00000
    C        0.60547        0.02909       -0.00000
    H        1.28422        0.87276       -0.00000
    H        1.05056       -0.98782       -0.00000
     4 
Profile. 103 HEAT OF FORMATION =   -22.847 KCAL
    O       -0.60153       -0.01535       -0.00000
    C        0.60576        0.03042       -0.00000
    H        1.28733        0.86831       -0.00000
    H        1.04285       -0.98817       -0.00000
     4 
Profile. 104 HEAT OF FORMATION =   -22.653 KCAL
    O       -0.60145       -0.01588       -0.00000
    C        0.60601        0.03141       -0.00000
    H        1.28932        0.86456       -0.00000
    H        1.03662       -0.98791       -0.00000
     4 
Profile. 105 HEAT OF FORMATION =   -22.511 KCAL
    O       -0.60138       -0.01624       -0.00000
    C        0.60622        0.03207       -0.00000
    H        1.29025        0.86164       -0.00000
    H        1.03202       -0.98715       -0.00000
     4 
Profile. 106 HEAT OF FORMATION =   -22.429 KCAL
    O       -0.60131       -0.01642       -0.00000
    C        0.60637        0.03238       -0.00000
    H        1.29020        0.85967       -0.00000
    H        1.02916       -0.98601       -0.00000
     4 
Profile. 107 HEAT OF FORMATION =   -22.414 KCAL
    O       -0.60124       -0.01642       -0.00000
    C        0.60644        0.03233       -0.00000
    H        1.28921        0.85873       -0.00000
    H        1.02813       -0.98459       -0.00000
     4 
Profile. 108 HEAT OF FORMATION =   -22.470 KCAL
    O       -0.60118       -0.01623       -0.00000
    C        0.60645        0.03194       -0.00000
    H        1.28733        0.85891       -0.00000
    H        1.02899       -0.98298       -0.00000
     4 
Profile. 109 HEAT OF FORMATION =   -22.597 KCAL
    O       -0.60112       -0.01587       -0.00000
    C        0.60637        0.03120       -0.00000
    H        1.28460        0.86025       -0.00000
    H        1.03179       -0.98126       -0.00000
     4 
Profile. 110 HEAT OF FORMATION =   -22.791 KCAL
    O       -0.60108       -0.01533       -0.00000
    C        0.60622        0.03012       -0.00000
    H        1.28110        0.86274       -0.00000
    H        1.03646       -0.97952       -0.00000
     4 
Profile. 111 HEAT OF FORMATION =   -23.040 KCAL
    O       -0.60105       -0.01463       -0.00000
    C        0.60600        0.02873       -0.00000
    H        1.27682        0.86636       -0.00000
    H        1.04296       -0.97776       -0.00000
     4 
Profile. 112 HEAT OF FORMATION =   -23.333 KCAL
    O       -0.60103       -0.01376       -0.00000
    C        0.60572        0.02704       -0.00000
    H        1.27178        0.87103       -0.00000
    H        1.05119       -0.97598       -0.00000
     4 
Profile. 113 HEAT OF FORMATION =   -23.655 KCAL
    O       -0.60103       -0.01274       -0.00000
    C        0.60538        0.02506       -0.00000
    H        1.26597        0.87665       -0.00000
    H        1.06103       -0.97414       -0.00000
     4 
Profile. 114 HEAT OF FORMATION =   -23.986 KCAL
    O       -0.60104       -0.01159       -0.00000
    C        0.60501        0.02281       -0.00000
    H        1.25938        0.88305       -0.00000
    H        1.07226       -0.97217       -0.00000
     4 
Profile. 115 HEAT OF FORMATION =   -24.310 KCAL
    O       -0.60107       -0.01031       -0.00000
    C        0.60463        0.02033       -0.00000
    H        1.25197        0.89010       -0.00000
    H        1.08472       -0.96997       -0.00000
     4 
Profile. 116 HEAT OF FORMATION =   -24.610 KCAL
    O       -0.60110       -0.00891       -0.00000
    C        0.60425        0.01763       -0.00000
    H        1.24374        0.89760       -0.00000
    H        1.09818       -0.96745       -0.00000
     4 
Profile. 117 HEAT OF FORMATION =   -24.875 KCAL
    O       -0.60115       -0.00742       -0.00000
    C        0.60388        0.01475       -0.00000
    H        1.23467        0.90537       -0.00000
    H        1.11240       -0.96451       -0.00000
     4 
Profile. 118 HEAT OF FORMATION =   -25.093 KCAL
    O       -0.60120       -0.00585       -0.00000
    C        0.60356        0.01171       -0.00000
    H        1.22477        0.91323       -0.00000
    H        1.12715       -0.96106       -0.00000
     4 
Profile. 119 HEAT OF FORMATION =   -25.258 KCAL
    O       -0.60127       -0.00421       -0.00000
    C        0.60329        0.00853       -0.00000
    H        1.21409        0.92099       -0.00000
    H        1.14217       -0.95701       -0.00000
     4 
Profile. 120 HEAT OF FORMATION =   -25.368 KCAL
    O       -0.60134       -0.00253       -0.00000
    C        0.60309        0.00527       -0.00000
    H        1.20265        0.92849       -0.00000
    H        1.15722       -0.95231       -0.00000
     4 
Profile. 121 HEAT OF FORMATION =   -25.423 KCAL
    O       -0.60141       -0.00082       -0.00000
    C        0.60297        0.00194       -0.00000
    H        1.19055        0.93559       -0.00000
    H        1.17207       -0.94692       -0.00000
