     4 
Profile.   1 HEAT OF FORMATION =   -25.542 KCAL
    O       -0.60148        0.00000       -0.00000
    C        0.60466        0.00000       -0.00000
    H        1.17115        0.93259       -0.00000
    H        1.17115       -0.93259        0.00000
     4 
Profile.   2 HEAT OF FORMATION =   -25.501 KCAL
    O       -0.59877       -0.00000        0.00000
    C        0.60112        0.00000        0.00000
    H        1.17068        0.93090       -0.00000
    H        1.17068       -0.93090        0.00000
     4 
Profile.   3 HEAT OF FORMATION =   -25.380 KCAL
    O       -0.59607        0.00000        0.00000
    C        0.59761        0.00000        0.00000
    H        1.17021        0.92924       -0.00000
    H        1.17021       -0.92924        0.00000
     4 
Profile.   4 HEAT OF FORMATION =   -25.180 KCAL
    O       -0.59342        0.00000        0.00000
    C        0.59416        0.00000        0.00000
    H        1.16975        0.92761       -0.00000
    H        1.16974       -0.92761        0.00000
     4 
Profile.   5 HEAT OF FORMATION =   -24.905 KCAL
    O       -0.59083        0.00000        0.00000
    C        0.59078        0.00000        0.00000
    H        1.16929        0.92604       -0.00000
    H        1.16929       -0.92604        0.00000
     4 
Profile.   6 HEAT OF FORMATION =   -24.564 KCAL
    O       -0.58833        0.00000        0.00000
    C        0.58752        0.00000        0.00000
    H        1.16885        0.92452       -0.00000
    H        1.16884       -0.92452        0.00000
     4 
Profile.   7 HEAT OF FORMATION =   -24.164 KCAL
    O       -0.58593        0.00000        0.00000
    C        0.58440        0.00000        0.00000
    H        1.16842        0.92308       -0.00000
    H        1.16841       -0.92308        0.00000
     4 
Profile.   8 HEAT OF FORMATION =   -23.719 KCAL
    O       -0.58366        0.00000        0.00000
    C        0.58144        0.00000        0.00000
    H        1.16802        0.92172       -0.00000
    H        1.16800       -0.92172        0.00000
     4 
Profile.   9 HEAT OF FORMATION =   -23.243 KCAL
    O       -0.58154        0.00000        0.00000
    C        0.57868        0.00000        0.00000
    H        1.16763        0.92045       -0.00000
    H        1.16762       -0.92045        0.00000
     4 
Profile.  10 HEAT OF FORMATION =   -22.752 KCAL
    O       -0.57958        0.00000        0.00000
    C        0.57614        0.00000        0.00000
    H        1.16727        0.91928       -0.00000
    H        1.16725       -0.91928        0.00000
     4 
Profile.  11 HEAT OF FORMATION =   -22.264 KCAL
    O       -0.57781        0.00000        0.00000
    C        0.57383        0.00000        0.00000
    H        1.16694        0.91823       -0.00000
    H        1.16692       -0.91823        0.00000
     4 
Profile.  12 HEAT OF FORMATION =   -21.795 KCAL
    O       -0.57624        0.00000        0.00000
    C        0.57180        0.00000        0.00000
    H        1.16664        0.91730       -0.00000
    H        1.16661       -0.91730        0.00000
     4 
Profile.  13 HEAT OF FORMATION =   -21.365 KCAL
    O       -0.57489        0.00000        0.00000
    C        0.57004        0.00000        0.00000
    H        1.16638        0.91649       -0.00000
    H        1.16634       -0.91649        0.00000
     4 
Profile.  14 HEAT OF FORMATION =   -20.988 KCAL
    O       -0.57377        0.00000        0.00000
    C        0.56859        0.00000        0.00000
    H        1.16614        0.91581       -0.00000
    H        1.16610       -0.91582        0.00000
     4 
Profile.  15 HEAT OF FORMATION =   -20.682 KCAL
    O       -0.57290        0.00000        0.00000
    C        0.56746        0.00000       -0.00000
    H        1.16595        0.91528       -0.00000
    H        1.16590       -0.91528        0.00000
     4 
Profile.  16 HEAT OF FORMATION =   -20.456 KCAL
    O       -0.57227        0.00000        0.00000
    C        0.56665        0.00000       -0.00000
    H        1.16579        0.91489       -0.00000
    H        1.16574       -0.91489        0.00000
     4 
Profile.  17 HEAT OF FORMATION =   -20.321 KCAL
    O       -0.57190        0.00000        0.00000
    C        0.56618        0.00000       -0.00000
    H        1.16568        0.91464       -0.00000
    H        1.16562       -0.91465        0.00000
     4 
Profile.  18 HEAT OF FORMATION =   -20.282 KCAL
    O       -0.57179        0.00000        0.00000
    C        0.56605        0.00000       -0.00000
    H        1.16561        0.91455       -0.00000
    H        1.16554       -0.91456        0.00000
     4 
Profile.  19 HEAT OF FORMATION =   -20.342 KCAL
    O       -0.57195        0.00000        0.00000
    C        0.56627        0.00000       -0.00000
    H        1.16558        0.91460       -0.00000
    H        1.16550       -0.91461        0.00000
     4 
Profile.  20 HEAT OF FORMATION =   -20.496 KCAL
    O       -0.57237        0.00000        0.00000
    C        0.56682        0.00000       -0.00000
    H        1.16559        0.91481       -0.00000
    H        1.16550       -0.91482        0.00000
     4 
Profile.  21 HEAT OF FORMATION =   -20.740 KCAL
    O       -0.57304        0.00000        0.00000
    C        0.56771        0.00000       -0.00000
    H        1.16564        0.91516       -0.00000
    H        1.16555       -0.91518        0.00000
     4 
Profile.  22 HEAT OF FORMATION =   -21.063 KCAL
    O       -0.57397        0.00000        0.00000
    C        0.56892        0.00000       -0.00000
    H        1.16574        0.91566       -0.00001
    H        1.16564       -0.91568        0.00000
     4 
Profile.  23 HEAT OF FORMATION =   -21.451 KCAL
    O       -0.57513        0.00000        0.00000
    C        0.57045        0.00000       -0.00000
    H        1.16587        0.91631       -0.00001
    H        1.16577       -0.91633        0.00000
     4 
Profile.  24 HEAT OF FORMATION =   -21.891 KCAL
    O       -0.57652        0.00000        0.00000
    C        0.57228        0.00000       -0.00000
    H        1.16605        0.91709       -0.00001
    H        1.16594       -0.91712        0.00000
     4 
Profile.  25 HEAT OF FORMATION =   -22.365 KCAL
    O       -0.57813        0.00000        0.00000
    C        0.57438        0.00000       -0.00000
    H        1.16627        0.91801       -0.00001
    H        1.16615       -0.91804        0.00000
     4 
Profile.  26 HEAT OF FORMATION =   -22.856 KCAL
    O       -0.57994        0.00000        0.00000
    C        0.57675        0.00000       -0.00000
    H        1.16653        0.91906       -0.00001
    H        1.16640       -0.91909        0.00000
     4 
Profile.  27 HEAT OF FORMATION =   -23.345 KCAL
    O       -0.58193        0.00000        0.00000
    C        0.57935        0.00000       -0.00000
    H        1.16683        0.92022       -0.00001
    H        1.16669       -0.92027        0.00001
     4 
Profile.  28 HEAT OF FORMATION =   -23.816 KCAL
    O       -0.58408        0.00000        0.00000
    C        0.58216        0.00000       -0.00000
    H        1.16716        0.92150       -0.00001
    H        1.16701       -0.92155        0.00001
     4 
Profile.  29 HEAT OF FORMATION =   -24.252 KCAL
    O       -0.58637        0.00000        0.00000
    C        0.58516        0.00000       -0.00000
    H        1.16752        0.92288       -0.00001
    H        1.16736       -0.92294        0.00001
     4 
Profile.  30 HEAT OF FORMATION =   -24.640 KCAL
    O       -0.58879        0.00000        0.00000
    C        0.58831        0.00000       -0.00000
    H        1.16790        0.92435       -0.00001
    H        1.16774       -0.92442        0.00001
     4 
Profile.  31 HEAT OF FORMATION =   -24.968 KCAL
    O       -0.59131        0.00000        0.00000
    C        0.59160        0.00000       -0.00000
    H        1.16832        0.92591       -0.00001
    H        1.16815       -0.92598        0.00001
     4 
Profile.  32 HEAT OF FORMATION =   -25.227 KCAL
    O       -0.59391        0.00000        0.00000
    C        0.59499        0.00000       -0.00000
    H        1.16876        0.92753       -0.00001
    H        1.16858       -0.92761        0.00001
     4 
Profile.  33 HEAT OF FORMATION =   -25.411 KCAL
    O       -0.59657        0.00000        0.00000
    C        0.59846        0.00000       -0.00000
    H        1.16921        0.92921       -0.00001
    H        1.16903       -0.92929        0.00001
     4 
Profile.  34 HEAT OF FORMATION =   -25.516 KCAL
    O       -0.59927        0.00000        0.00000
    C        0.60198        0.00000       -0.00000
    H        1.16968        0.93094       -0.00001
    H        1.16949       -0.93103        0.00001
     4 
Profile.  35 HEAT OF FORMATION =   -25.540 KCAL
    O       -0.60199        0.00000        0.00000
    C        0.60551        0.00000       -0.00000
    H        1.17017        0.93269       -0.00001
    H        1.16997       -0.93279        0.00001
     4 
Profile.  36 HEAT OF FORMATION =   -25.487 KCAL
    O       -0.60470        0.00000        0.00000
    C        0.60904        0.00000       -0.00000
    H        1.17066        0.93447       -0.00001
    H        1.17045       -0.93457        0.00001
     4 
Profile.  37 HEAT OF FORMATION =   -25.359 KCAL
    O       -0.60738        0.00000        0.00000
    C        0.61254        0.00000       -0.00000
    H        1.17115        0.93624       -0.00001
    H        1.17094       -0.93636        0.00001
     4 
Profile.  38 HEAT OF FORMATION =   -25.162 KCAL
    O       -0.61003        0.00000        0.00000
    C        0.61598        0.00000       -0.00000
    H        1.17164        0.93801       -0.00001
    H        1.17142       -0.93813        0.00001
     4 
Profile.  39 HEAT OF FORMATION =   -24.905 KCAL
    O       -0.61261        0.00001        0.00000
    C        0.61934        0.00000       -0.00000
    H        1.17213        0.93975       -0.00001
    H        1.17190       -0.93988        0.00001
     4 
Profile.  40 HEAT OF FORMATION =   -24.595 KCAL
    O       -0.61511        0.00001        0.00000
    C        0.62259        0.00000       -0.00000
    H        1.17260        0.94145       -0.00001
    H        1.17237       -0.94159        0.00001
     4 
Profile.  41 HEAT OF FORMATION =   -24.242 KCAL
    O       -0.61752        0.00001        0.00000
    C        0.62572        0.00000       -0.00000
    H        1.17307        0.94310       -0.00001
    H        1.17283       -0.94325        0.00001
     4 
Profile.  42 HEAT OF FORMATION =   -23.857 KCAL
    O       -0.61982        0.00001        0.00000
    C        0.62871        0.00000       -0.00000
    H        1.17352        0.94469       -0.00001
    H        1.17327       -0.94484        0.00001
     4 
Profile.  43 HEAT OF FORMATION =   -23.451 KCAL
    O       -0.62199        0.00001        0.00000
    C        0.63153        0.00000       -0.00000
    H        1.17395        0.94619       -0.00001
    H        1.17369       -0.94635        0.00001
     4 
Profile.  44 HEAT OF FORMATION =   -23.034 KCAL
    O       -0.62403        0.00001        0.00000
    C        0.63418        0.00000       -0.00000
    H        1.17435        0.94761       -0.00001
    H        1.17409       -0.94778        0.00001
     4 
Profile.  45 HEAT OF FORMATION =   -22.617 KCAL
    O       -0.62592        0.00001        0.00000
    C        0.63663        0.00000       -0.00000
    H        1.17473        0.94892       -0.00001
    H        1.17446       -0.94910        0.00001
     4 
Profile.  46 HEAT OF FORMATION =   -22.210 KCAL
    O       -0.62764        0.00001        0.00000
    C        0.63887        0.00000       -0.00000
    H        1.17508        0.95012       -0.00001
    H        1.17480       -0.95030        0.00001
     4 
Profile.  47 HEAT OF FORMATION =   -21.822 KCAL
    O       -0.62920        0.00001        0.00000
    C        0.64090        0.00000       -0.00000
    H        1.17539        0.95120       -0.00001
    H        1.17511       -0.95139        0.00001
     4 
Profile.  48 HEAT OF FORMATION =   -21.464 KCAL
    O       -0.63058        0.00001        0.00000
    C        0.64269        0.00000       -0.00000
    H        1.17567        0.95215       -0.00001
    H        1.17538       -0.95234        0.00001
     4 
Profile.  49 HEAT OF FORMATION =   -21.142 KCAL
    O       -0.63177        0.00001        0.00000
    C        0.64424        0.00000       -0.00000
    H        1.17591        0.95295       -0.00001
    H        1.17561       -0.95315        0.00001
     4 
Profile.  50 HEAT OF FORMATION =   -20.864 KCAL
    O       -0.63278        0.00001        0.00000
    C        0.64554        0.00000       -0.00000
    H        1.17612        0.95361       -0.00001
    H        1.17581       -0.95382        0.00001
     4 
Profile.  51 HEAT OF FORMATION =   -20.635 KCAL
    O       -0.63358        0.00001        0.00000
    C        0.64659       -0.00000       -0.00000
    H        1.17628        0.95412       -0.00001
    H        1.17597       -0.95433        0.00001
     4 
Profile.  52 HEAT OF FORMATION =   -20.460 KCAL
    O       -0.63419        0.00001        0.00000
    C        0.64737       -0.00000       -0.00000
    H        1.17640        0.95448       -0.00001
    H        1.17608       -0.95469        0.00001
     4 
Profile.  53 HEAT OF FORMATION =   -20.344 KCAL
    O       -0.63459        0.00002        0.00000
    C        0.64789       -0.00000       -0.00000
    H        1.17648        0.95467       -0.00001
    H        1.17616       -0.95489        0.00001
     4 
Profile.  54 HEAT OF FORMATION =   -20.288 KCAL
    O       -0.63478        0.00002        0.00000
    C        0.64814       -0.00000       -0.00000
    H        1.17652        0.95471       -0.00001
    H        1.17619       -0.95493        0.00001
     4 
Profile.  55 HEAT OF FORMATION =   -20.292 KCAL
    O       -0.63477        0.00002        0.00000
    C        0.64813       -0.00000       -0.00000
    H        1.17652        0.95459       -0.00001
    H        1.17618       -0.95482        0.00001
     4 
Profile.  56 HEAT OF FORMATION =   -20.360 KCAL
    O       -0.63454        0.00002        0.00000
    C        0.64784       -0.00000       -0.00000
    H        1.17648        0.95431       -0.00001
    H        1.17613       -0.95454        0.00001
     4 
Profile.  57 HEAT OF FORMATION =   -20.486 KCAL
    O       -0.63412        0.00002        0.00000
    C        0.64729       -0.00001       -0.00000
    H        1.17639        0.95388       -0.00001
    H        1.17604       -0.95411        0.00001
     4 
Profile.  58 HEAT OF FORMATION =   -20.671 KCAL
    O       -0.63349        0.00002        0.00000
    C        0.64646       -0.00001       -0.00000
    H        1.17627        0.95329       -0.00001
    H        1.17591       -0.95352        0.00001
     4 
Profile.  59 HEAT OF FORMATION =   -20.908 KCAL
    O       -0.63266        0.00002        0.00000
    C        0.64539       -0.00001       -0.00000
    H        1.17611        0.95256       -0.00001
    H        1.17574       -0.95279        0.00001
     4 
Profile.  60 HEAT OF FORMATION =   -21.194 KCAL
    O       -0.63163        0.00002        0.00000
    C        0.64405       -0.00001       -0.00000
    H        1.17591        0.95168       -0.00001
    H        1.17554       -0.95192        0.00001
     4 
Profile.  61 HEAT OF FORMATION =   -21.523 KCAL
    O       -0.63041        0.00002        0.00000
    C        0.64246       -0.00001       -0.00000
    H        1.17568        0.95068       -0.00001
    H        1.17531       -0.95092        0.00001
     4 
Profile.  62 HEAT OF FORMATION =   -21.886 KCAL
    O       -0.62901        0.00002        0.00000
    C        0.64064       -0.00001       -0.00000
    H        1.17543        0.94956       -0.00001
    H        1.17504       -0.94980        0.00001
     4 
Profile.  63 HEAT OF FORMATION =   -22.277 KCAL
    O       -0.62743        0.00003        0.00000
    C        0.63858       -0.00001       -0.00000
    H        1.17514        0.94833       -0.00001
    H        1.17475       -0.94857        0.00001
     4 
Profile.  64 HEAT OF FORMATION =   -22.685 KCAL
    O       -0.62568        0.00003        0.00000
    C        0.63631       -0.00002       -0.00000
    H        1.17483        0.94699       -0.00001
    H        1.17443       -0.94723        0.00001
     4 
Profile.  65 HEAT OF FORMATION =   -23.103 KCAL
    O       -0.62377        0.00003        0.00000
    C        0.63383       -0.00002       -0.00000
    H        1.17449        0.94556       -0.00001
    H        1.17409       -0.94581        0.00001
     4 
Profile.  66 HEAT OF FORMATION =   -23.518 KCAL
    O       -0.62172        0.00003        0.00000
    C        0.63115       -0.00002       -0.00000
    H        1.17414        0.94405       -0.00001
    H        1.17374       -0.94430        0.00001
     4 
Profile.  67 HEAT OF FORMATION =   -23.921 KCAL
    O       -0.61953        0.00003        0.00000
    C        0.62829       -0.00002       -0.00000
    H        1.17377        0.94248       -0.00001
    H        1.17336       -0.94273        0.00001
     4 
Profile.  68 HEAT OF FORMATION =   -24.300 KCAL
    O       -0.61722        0.00003        0.00000
    C        0.62528       -0.00002       -0.00000
    H        1.17339        0.94085       -0.00001
    H        1.17298       -0.94111        0.00001
     4 
Profile.  69 HEAT OF FORMATION =   -24.646 KCAL
    O       -0.61480        0.00003        0.00000
    C        0.62212       -0.00002       -0.00000
    H        1.17300        0.93919       -0.00002
    H        1.17259       -0.93944        0.00001
     4 
Profile.  70 HEAT OF FORMATION =   -24.948 KCAL
    O       -0.61228        0.00004        0.00000
    C        0.61884       -0.00003       -0.00000
    H        1.17260        0.93749       -0.00002
    H        1.17219       -0.93775        0.00001
     4 
Profile.  71 HEAT OF FORMATION =   -25.196 KCAL
    O       -0.60969        0.00004        0.00000
    C        0.61546       -0.00003       -0.00000
    H        1.17220        0.93578       -0.00002
    H        1.17179       -0.93604        0.00001
     4 
Profile.  72 HEAT OF FORMATION =   -25.382 KCAL
    O       -0.60705        0.00004        0.00000
    C        0.61200       -0.00003       -0.00000
    H        1.17181        0.93407       -0.00002
    H        1.17139       -0.93433        0.00001
     4 
Profile.  73 HEAT OF FORMATION =   -25.498 KCAL
    O       -0.60436        0.00004        0.00000
    C        0.60848       -0.00003       -0.00000
    H        1.17142        0.93237       -0.00002
    H        1.17100       -0.93264        0.00002
     4 
Profile.  74 HEAT OF FORMATION =   -25.539 KCAL
    O       -0.60165        0.00004        0.00000
    C        0.60494       -0.00003       -0.00000
    H        1.17103        0.93069       -0.00002
    H        1.17061       -0.93096        0.00002
