     4 
Profile.   1 HEAT OF FORMATION =   -25.542 KCAL
    O       -0.60148        0.00000       -0.00000
    C        0.60466        0.00000       -0.00000
    H        1.17115        0.93259       -0.00000
    H        1.17115       -0.93259        0.00000
     4 
Profile.   2 HEAT OF FORMATION =   -25.429 KCAL
    O       -0.60148        0.00010        0.00000
    C        0.60466        0.00169        0.00000
    H        1.16350        0.92172       -0.00000
    H        1.17880       -0.94346        0.00000
     4 
Profile.   3 HEAT OF FORMATION =   -25.094 KCAL
    O       -0.60148        0.00020        0.00000
    C        0.60466        0.00335        0.00000
    H        1.15597        0.91104       -0.00000
    H        1.18632       -0.95418        0.00000
     4 
Profile.   4 HEAT OF FORMATION =   -24.561 KCAL
    O       -0.60148        0.00030        0.00000
    C        0.60466        0.00496        0.00000
    H        1.14869        0.90072       -0.00000
    H        1.19362       -0.96459        0.00000
     4 
Profile.   5 HEAT OF FORMATION =   -23.861 KCAL
    O       -0.60148        0.00039        0.00000
    C        0.60466        0.00650        0.00000
    H        1.14176        0.89092       -0.00000
    H        1.20059       -0.97454        0.00000
     4 
Profile.   6 HEAT OF FORMATION =   -23.035 KCAL
    O       -0.60148        0.00048        0.00000
    C        0.60465        0.00793        0.00000
    H        1.13531        0.88180       -0.00000
    H        1.20715       -0.98392        0.00000
     4 
Profile.   7 HEAT OF FORMATION =   -22.137 KCAL
    O       -0.60149        0.00056        0.00000
    C        0.60463        0.00925        0.00000
    H        1.12945        0.87353       -0.00000
    H        1.21320       -0.99259        0.00000
     4 
Profile.   8 HEAT OF FORMATION =   -21.221 KCAL
    O       -0.60149        0.00063        0.00000
    C        0.60461        0.01043        0.00000
    H        1.12429        0.86625       -0.00000
    H        1.21868       -1.00044        0.00000
     4 
Profile.   9 HEAT OF FORMATION =   -20.342 KCAL
    O       -0.60149        0.00069        0.00000
    C        0.60457        0.01145        0.00000
    H        1.11992        0.86009       -0.00000
    H        1.22351       -1.00739        0.00000
     4 
Profile.  10 HEAT OF FORMATION =   -19.556 KCAL
    O       -0.60149        0.00074        0.00000
    C        0.60452        0.01229        0.00000
    H        1.11642        0.85518       -0.00000
    H        1.22764       -1.01335        0.00000
     4 
Profile.  11 HEAT OF FORMATION =   -18.909 KCAL
    O       -0.60149        0.00078        0.00000
    C        0.60446        0.01295        0.00000
    H        1.11387        0.85159       -0.00000
    H        1.23103       -1.01825        0.00000
     4 
Profile.  12 HEAT OF FORMATION =   -18.441 KCAL
    O       -0.60150        0.00080        0.00000
    C        0.60438        0.01342        0.00000
    H        1.11230        0.84941       -0.00000
    H        1.23364       -1.02204        0.00000
     4 
Profile.  13 HEAT OF FORMATION =   -18.178 KCAL
    O       -0.60151        0.00082        0.00000
    C        0.60428        0.01368        0.00000
    H        1.11176        0.84866       -0.00000
    H        1.23544       -1.02468        0.00000
     4 
Profile.  14 HEAT OF FORMATION =   -18.134 KCAL
    O       -0.60151        0.00082        0.00000
    C        0.60416        0.01374        0.00000
    H        1.11226        0.84938       -0.00000
    H        1.23641       -1.02613        0.00000
     4 
Profile.  15 HEAT OF FORMATION =   -18.310 KCAL
    O       -0.60152        0.00081        0.00000
    C        0.60404        0.01360        0.00000
    H        1.11379        0.85153       -0.00000
    H        1.23653       -1.02638        0.00000
     4 
Profile.  16 HEAT OF FORMATION =   -18.691 KCAL
    O       -0.60153        0.00079        0.00000
    C        0.60390        0.01325        0.00000
    H        1.11631        0.85508       -0.00000
    H        1.23582       -1.02542        0.00000
     4 
Profile.  17 HEAT OF FORMATION =   -19.251 KCAL
    O       -0.60154        0.00075        0.00000
    C        0.60375        0.01271        0.00000
    H        1.11978        0.85996       -0.00000
    H        1.23426       -1.02327        0.00000
     4 
Profile.  18 HEAT OF FORMATION =   -19.953 KCAL
    O       -0.60155        0.00071        0.00000
    C        0.60360        0.01199        0.00000
    H        1.12414        0.86607       -0.00001
    H        1.23189       -1.01994        0.00000
     4 
Profile.  19 HEAT OF FORMATION =   -20.753 KCAL
    O       -0.60156        0.00065        0.00000
    C        0.60344        0.01108        0.00000
    H        1.12929        0.87330       -0.00001
    H        1.22872       -1.01548        0.00000
     4 
Profile.  20 HEAT OF FORMATION =   -21.604 KCAL
    O       -0.60157        0.00058        0.00000
    C        0.60330        0.01002        0.00000
    H        1.13516        0.88151       -0.00001
    H        1.22479       -1.00992        0.00000
     4 
Profile.  21 HEAT OF FORMATION =   -22.456 KCAL
    O       -0.60158        0.00050        0.00000
    C        0.60316        0.00881        0.00000
    H        1.14163        0.89056       -0.00001
    H        1.22015       -1.00333        0.00000
     4 
Profile.  22 HEAT OF FORMATION =   -23.260 KCAL
    O       -0.60159        0.00042        0.00000
    C        0.60303        0.00748        0.00000
    H        1.14858        0.90029       -0.00001
    H        1.21484       -0.99579        0.00000
     4 
Profile.  23 HEAT OF FORMATION =   -23.972 KCAL
    O       -0.60160        0.00033        0.00000
    C        0.60292        0.00604        0.00000
    H        1.15591        0.91052       -0.00001
    H        1.20893       -0.98738        0.00000
     4 
Profile.  24 HEAT OF FORMATION =   -24.553 KCAL
    O       -0.60161        0.00023        0.00000
    C        0.60284        0.00451        0.00000
    H        1.16349        0.92110       -0.00001
    H        1.20250       -0.97821        0.00000
     4 
Profile.  25 HEAT OF FORMATION =   -24.973 KCAL
    O       -0.60161        0.00013        0.00000
    C        0.60278        0.00292        0.00000
    H        1.17120        0.93184       -0.00001
    H        1.19562       -0.96838        0.00001
     4 
Profile.  26 HEAT OF FORMATION =   -25.210 KCAL
    O       -0.60162        0.00003        0.00000
    C        0.60275        0.00129        0.00000
    H        1.17892        0.94259       -0.00001
    H        1.18838       -0.95804        0.00001
     4 
Profile.  27 HEAT OF FORMATION =   -25.252 KCAL
    O       -0.60162       -0.00007        0.00000
    C        0.60274       -0.00036        0.00000
    H        1.18653        0.95317       -0.00001
    H        1.18089       -0.94733        0.00001
     4 
Profile.  28 HEAT OF FORMATION =   -25.096 KCAL
    O       -0.60163       -0.00017        0.00000
    C        0.60277       -0.00200        0.00000
    H        1.19393        0.96344       -0.00001
    H        1.17325       -0.93639        0.00001
     4 
Profile.  29 HEAT OF FORMATION =   -24.751 KCAL
    O       -0.60163       -0.00027        0.00000
    C        0.60282       -0.00361        0.00000
    H        1.20101        0.97325       -0.00001
    H        1.16558       -0.92539        0.00001
     4 
Profile.  30 HEAT OF FORMATION =   -24.233 KCAL
    O       -0.60163       -0.00037        0.00000
    C        0.60290       -0.00517        0.00000
    H        1.20768        0.98247       -0.00001
    H        1.15799       -0.91449        0.00001
     4 
Profile.  31 HEAT OF FORMATION =   -23.571 KCAL
    O       -0.60163       -0.00046        0.00000
    C        0.60300       -0.00665        0.00000
    H        1.21385        0.99098       -0.00001
    H        1.15061       -0.90387        0.00001
     4 
Profile.  32 HEAT OF FORMATION =   -22.798 KCAL
    O       -0.60163       -0.00055        0.00000
    C        0.60312       -0.00803        0.00000
    H        1.21945        0.99868       -0.00001
    H        1.14356       -0.89371        0.00001
     4 
Profile.  33 HEAT OF FORMATION =   -21.959 KCAL
    O       -0.60163       -0.00062        0.00000
    C        0.60326       -0.00930        0.00000
    H        1.22440        1.00546       -0.00001
    H        1.13696       -0.88417        0.00001
     4 
Profile.  34 HEAT OF FORMATION =   -21.099 KCAL
    O       -0.60163       -0.00069        0.00000
    C        0.60341       -0.01042        0.00000
    H        1.22866        1.01126       -0.00001
    H        1.13092       -0.87542        0.00001
     4 
Profile.  35 HEAT OF FORMATION =   -20.270 KCAL
    O       -0.60162       -0.00075        0.00000
    C        0.60356       -0.01139        0.00000
    H        1.23218        1.01601       -0.00001
    H        1.12556       -0.86762        0.00001
     4 
Profile.  36 HEAT OF FORMATION =   -19.520 KCAL
    O       -0.60162       -0.00080        0.00000
    C        0.60371       -0.01220        0.00000
    H        1.23491        1.01965       -0.00001
    H        1.12098       -0.86090        0.00001
     4 
Profile.  37 HEAT OF FORMATION =   -18.897 KCAL
    O       -0.60162       -0.00083        0.00000
    C        0.60386       -0.01282        0.00000
    H        1.23683        1.02215       -0.00001
    H        1.11726       -0.85539        0.00001
     4 
Profile.  38 HEAT OF FORMATION =   -18.439 KCAL
    O       -0.60162       -0.00086        0.00000
    C        0.60400       -0.01325       -0.00000
    H        1.23793        1.02348       -0.00001
    H        1.11447       -0.85120        0.00001
     4 
Profile.  39 HEAT OF FORMATION =   -18.179 KCAL
    O       -0.60162       -0.00087        0.00000
    C        0.60413       -0.01348       -0.00000
    H        1.23818        1.02362       -0.00001
    H        1.11267       -0.84840        0.00001
     4 
Profile.  40 HEAT OF FORMATION =   -18.135 KCAL
    O       -0.60162       -0.00087        0.00000
    C        0.60424       -0.01350       -0.00000
    H        1.23758        1.02258       -0.00001
    H        1.11190       -0.84704        0.00001
     4 
Profile.  41 HEAT OF FORMATION =   -18.314 KCAL
    O       -0.60162       -0.00086        0.00000
    C        0.60434       -0.01332       -0.00000
    H        1.23615        1.02037       -0.00001
    H        1.11216       -0.84717        0.00001
     4 
Profile.  42 HEAT OF FORMATION =   -18.707 KCAL
    O       -0.60162       -0.00083        0.00000
    C        0.60442       -0.01294       -0.00000
    H        1.23389        1.01701       -0.00001
    H        1.11347       -0.84876        0.00001
     4 
Profile.  43 HEAT OF FORMATION =   -19.291 KCAL
    O       -0.60162       -0.00079        0.00000
    C        0.60449       -0.01236       -0.00000
    H        1.23084        1.01253       -0.00001
    H        1.11579       -0.85180        0.00001
     4 
Profile.  44 HEAT OF FORMATION =   -20.031 KCAL
    O       -0.60162       -0.00074        0.00000
    C        0.60453       -0.01159       -0.00000
    H        1.22703        1.00701       -0.00001
    H        1.11909       -0.85623        0.00001
     4 
Profile.  45 HEAT OF FORMATION =   -20.883 KCAL
    O       -0.60163       -0.00068        0.00000
    C        0.60457       -0.01065       -0.00000
    H        1.22249        1.00048       -0.00001
    H        1.12329       -0.86195        0.00001
     4 
Profile.  46 HEAT OF FORMATION =   -21.794 KCAL
    O       -0.60163       -0.00061        0.00000
    C        0.60459       -0.00954       -0.00000
    H        1.21730        0.99304       -0.00001
    H        1.12832       -0.86886        0.00001
     4 
Profile.  47 HEAT OF FORMATION =   -22.707 KCAL
    O       -0.60163       -0.00053        0.00000
    C        0.60459       -0.00828       -0.00000
    H        1.21149        0.98477       -0.00001
    H        1.13408       -0.87684        0.00001
     4 
Profile.  48 HEAT OF FORMATION =   -23.567 KCAL
    O       -0.60164       -0.00044        0.00000
    C        0.60459       -0.00690       -0.00000
    H        1.20516        0.97577       -0.00001
    H        1.14048       -0.88574        0.00001
     4 
Profile.  49 HEAT OF FORMATION =   -24.319 KCAL
    O       -0.60164       -0.00034        0.00000
    C        0.60459       -0.00541       -0.00000
    H        1.19836        0.96616       -0.00001
    H        1.14740       -0.89539        0.00001
     4 
Profile.  50 HEAT OF FORMATION =   -24.919 KCAL
    O       -0.60164       -0.00024        0.00000
    C        0.60458       -0.00384       -0.00000
    H        1.19121        0.95606       -0.00001
    H        1.15471       -0.90565        0.00001
     4 
Profile.  51 HEAT OF FORMATION =   -25.329 KCAL
    O       -0.60164       -0.00014        0.00000
    C        0.60457       -0.00220       -0.00000
    H        1.18378        0.94562       -0.00001
    H        1.16231       -0.91632        0.00001
     4 
Profile.  52 HEAT OF FORMATION =   -25.525 KCAL
    O       -0.60165       -0.00003        0.00000
    C        0.60456       -0.00053       -0.00000
    H        1.17619        0.93498       -0.00001
    H        1.17006       -0.92725        0.00001
