     2 
Profile.   1 HEAT OF FORMATION =    32.990 KCAL
    N       -0.55969        0.00000        0.00000
    N        0.55969        0.00000        0.00000
     2 
Profile.   2 HEAT OF FORMATION =    33.007 KCAL
    N       -0.55822       -0.00000       -0.00000
    N        0.55822        0.00000        0.00000
     2 
Profile.   3 HEAT OF FORMATION =    33.057 KCAL
    N       -0.55676       -0.00000       -0.00000
    N        0.55676        0.00000        0.00000
     2 
Profile.   4 HEAT OF FORMATION =    33.139 KCAL
    N       -0.55530       -0.00000       -0.00000
    N        0.55530        0.00000        0.00000
     2 
Profile.   5 HEAT OF FORMATION =    33.254 KCAL
    N       -0.55386       -0.00000       -0.00000
    N        0.55386        0.00000        0.00000
     2 
Profile.   6 HEAT OF FORMATION =    33.401 KCAL
    N       -0.55242       -0.00000       -0.00000
    N        0.55242        0.00000        0.00000
     2 
Profile.   7 HEAT OF FORMATION =    33.579 KCAL
    N       -0.55101       -0.00000       -0.00000
    N        0.55101        0.00000        0.00000
     2 
Profile.   8 HEAT OF FORMATION =    33.787 KCAL
    N       -0.54961       -0.00000       -0.00000
    N        0.54961        0.00000        0.00000
     2 
Profile.   9 HEAT OF FORMATION =    34.022 KCAL
    N       -0.54824       -0.00000       -0.00000
    N        0.54824        0.00000        0.00000
     2 
Profile.  10 HEAT OF FORMATION =    34.285 KCAL
    N       -0.54690       -0.00000       -0.00000
    N        0.54690        0.00000        0.00000
     2 
Profile.  11 HEAT OF FORMATION =    34.571 KCAL
    N       -0.54559       -0.00000       -0.00000
    N        0.54559        0.00000        0.00000
     2 
Profile.  12 HEAT OF FORMATION =    34.878 KCAL
    N       -0.54431       -0.00000       -0.00000
    N        0.54431        0.00000        0.00000
     2 
Profile.  13 HEAT OF FORMATION =    35.204 KCAL
    N       -0.54307       -0.00000       -0.00000
    N        0.54307        0.00000        0.00000
     2 
Profile.  14 HEAT OF FORMATION =    35.546 KCAL
    N       -0.54187       -0.00000       -0.00000
    N        0.54187        0.00000        0.00000
     2 
Profile.  15 HEAT OF FORMATION =    35.899 KCAL
    N       -0.54071       -0.00000       -0.00000
    N        0.54071        0.00000        0.00000
     2 
Profile.  16 HEAT OF FORMATION =    36.628 KCAL
    N       -0.53854       -0.00000       -0.00000
    N        0.53854        0.00000        0.00000
     2 
Profile.  17 HEAT OF FORMATION =    36.995 KCAL
    N       -0.53754       -0.00000       -0.00000
    N        0.53754        0.00000        0.00000
     2 
Profile.  18 HEAT OF FORMATION =    37.360 KCAL
    N       -0.53659       -0.00000       -0.00000
    N        0.53659        0.00000        0.00000
     2 
Profile.  19 HEAT OF FORMATION =    37.718 KCAL
    N       -0.53570       -0.00000       -0.00000
    N        0.53570        0.00000        0.00000
     2 
Profile.  20 HEAT OF FORMATION =    38.064 KCAL
    N       -0.53487       -0.00000       -0.00000
    N        0.53487        0.00000        0.00000
     2 
Profile.  21 HEAT OF FORMATION =    38.396 KCAL
    N       -0.53410       -0.00000       -0.00000
    N        0.53410        0.00000        0.00000
     2 
Profile.  22 HEAT OF FORMATION =    38.710 KCAL
    N       -0.53340       -0.00000       -0.00000
    N        0.53340        0.00000        0.00000
     2 
Profile.  23 HEAT OF FORMATION =    39.001 KCAL
    N       -0.53277       -0.00000       -0.00000
    N        0.53277        0.00000        0.00000
     2 
Profile.  24 HEAT OF FORMATION =    39.267 KCAL
    N       -0.53221       -0.00000       -0.00000
    N        0.53221        0.00000        0.00000
     2 
Profile.  25 HEAT OF FORMATION =    39.504 KCAL
    N       -0.53172       -0.00000       -0.00000
    N        0.53172        0.00000        0.00000
     2 
Profile.  26 HEAT OF FORMATION =    39.710 KCAL
    N       -0.53130       -0.00000       -0.00000
    N        0.53130        0.00000        0.00000
     2 
Profile.  27 HEAT OF FORMATION =    39.881 KCAL
    N       -0.53096       -0.00000       -0.00000
    N        0.53096        0.00000        0.00000
     2 
Profile.  28 HEAT OF FORMATION =    40.017 KCAL
    N       -0.53069       -0.00000       -0.00000
    N        0.53069        0.00000        0.00000
     2 
Profile.  29 HEAT OF FORMATION =    40.116 KCAL
    N       -0.53049       -0.00000       -0.00000
    N        0.53049        0.00000        0.00000
     2 
Profile.  30 HEAT OF FORMATION =    40.175 KCAL
    N       -0.53038       -0.00000       -0.00000
    N        0.53038        0.00000        0.00000
     2 
Profile.  31 HEAT OF FORMATION =    40.196 KCAL
    N       -0.53034       -0.00000       -0.00000
    N        0.53034        0.00000        0.00000
     2 
Profile.  32 HEAT OF FORMATION =    40.177 KCAL
    N       -0.53038       -0.00000       -0.00000
    N        0.53038        0.00000        0.00000
     2 
Profile.  33 HEAT OF FORMATION =    40.114 KCAL
    N       -0.53050       -0.00000       -0.00000
    N        0.53050        0.00000        0.00000
     2 
Profile.  34 HEAT OF FORMATION =    40.017 KCAL
    N       -0.53069       -0.00000       -0.00000
    N        0.53069        0.00000        0.00000
     2 
Profile.  35 HEAT OF FORMATION =    39.882 KCAL
    N       -0.53095       -0.00000       -0.00000
    N        0.53095        0.00000        0.00000
     2 
Profile.  36 HEAT OF FORMATION =    39.708 KCAL
    N       -0.53130       -0.00000       -0.00000
    N        0.53130        0.00000        0.00000
     2 
Profile.  37 HEAT OF FORMATION =    39.503 KCAL
    N       -0.53172       -0.00000       -0.00000
    N        0.53172        0.00000        0.00000
     2 
Profile.  38 HEAT OF FORMATION =    39.265 KCAL
    N       -0.53221       -0.00000       -0.00000
    N        0.53221        0.00000        0.00000
     2 
Profile.  39 HEAT OF FORMATION =    39.000 KCAL
    N       -0.53277       -0.00000       -0.00000
    N        0.53277        0.00000        0.00000
     2 
Profile.  40 HEAT OF FORMATION =    38.708 KCAL
    N       -0.53341       -0.00000       -0.00000
    N        0.53341        0.00000        0.00000
     2 
Profile.  41 HEAT OF FORMATION =    38.395 KCAL
    N       -0.53411       -0.00000       -0.00000
    N        0.53411        0.00000        0.00000
     2 
Profile.  42 HEAT OF FORMATION =    38.062 KCAL
    N       -0.53487       -0.00000       -0.00000
    N        0.53487        0.00000        0.00000
     2 
Profile.  43 HEAT OF FORMATION =    37.716 KCAL
    N       -0.53570       -0.00000       -0.00000
    N        0.53570        0.00000        0.00000
     2 
Profile.  44 HEAT OF FORMATION =    37.358 KCAL
    N       -0.53659       -0.00000       -0.00000
    N        0.53659        0.00000        0.00000
     2 
Profile.  45 HEAT OF FORMATION =    36.993 KCAL
    N       -0.53754       -0.00000       -0.00000
    N        0.53754        0.00000        0.00000
     2 
Profile.  46 HEAT OF FORMATION =    36.625 KCAL
    N       -0.53855       -0.00000       -0.00000
    N        0.53855        0.00000        0.00000
     2 
Profile.  47 HEAT OF FORMATION =    36.259 KCAL
    N       -0.53961       -0.00000       -0.00000
    N        0.53961        0.00000        0.00000
     2 
Profile.  48 HEAT OF FORMATION =    35.897 KCAL
    N       -0.54072       -0.00000       -0.00000
    N        0.54072        0.00000        0.00000
     2 
Profile.  49 HEAT OF FORMATION =    35.543 KCAL
    N       -0.54187       -0.00000       -0.00000
    N        0.54187        0.00000        0.00000
     2 
Profile.  50 HEAT OF FORMATION =    35.202 KCAL
    N       -0.54307       -0.00000       -0.00000
    N        0.54307        0.00000        0.00000
     2 
Profile.  51 HEAT OF FORMATION =    34.876 KCAL
    N       -0.54431       -0.00000       -0.00000
    N        0.54431        0.00000        0.00000
     2 
Profile.  52 HEAT OF FORMATION =    34.569 KCAL
    N       -0.54559       -0.00000       -0.00000
    N        0.54559        0.00000        0.00000
     2 
Profile.  53 HEAT OF FORMATION =    34.283 KCAL
    N       -0.54691       -0.00000       -0.00000
    N        0.54691        0.00000        0.00000
     2 
Profile.  54 HEAT OF FORMATION =    34.021 KCAL
    N       -0.54825       -0.00000       -0.00000
    N        0.54825        0.00000        0.00000
     2 
Profile.  55 HEAT OF FORMATION =    33.785 KCAL
    N       -0.54962       -0.00000       -0.00000
    N        0.54962        0.00000        0.00000
     2 
Profile.  56 HEAT OF FORMATION =    33.578 KCAL
    N       -0.55102       -0.00000       -0.00000
    N        0.55102        0.00000        0.00000
     2 
Profile.  57 HEAT OF FORMATION =    33.400 KCAL
    N       -0.55243       -0.00000       -0.00000
    N        0.55243        0.00000        0.00000
     2 
Profile.  58 HEAT OF FORMATION =    33.253 KCAL
    N       -0.55387       -0.00000       -0.00000
    N        0.55387        0.00000        0.00000
     2 
Profile.  59 HEAT OF FORMATION =    33.138 KCAL
    N       -0.55531       -0.00000       -0.00000
    N        0.55531        0.00000        0.00000
     2 
Profile.  60 HEAT OF FORMATION =    33.056 KCAL
    N       -0.55677       -0.00000       -0.00000
    N        0.55677        0.00000        0.00000
     2 
Profile.  61 HEAT OF FORMATION =    33.007 KCAL
    N       -0.55823       -0.00000       -0.00000
    N        0.55823        0.00000        0.00000
     2 
Profile.  62 HEAT OF FORMATION =    32.990 KCAL
    N       -0.55970       -0.00000       -0.00000
    N        0.55970        0.00000        0.00000
     2 
Profile.  63 HEAT OF FORMATION =    33.006 KCAL
    N       -0.56116       -0.00000       -0.00000
    N        0.56116        0.00000        0.00000
     2 
Profile.  64 HEAT OF FORMATION =    33.054 KCAL
    N       -0.56263       -0.00000       -0.00000
    N        0.56263        0.00000        0.00000
     2 
Profile.  65 HEAT OF FORMATION =    33.133 KCAL
    N       -0.56408       -0.00000       -0.00000
    N        0.56408        0.00000        0.00000
     2 
Profile.  66 HEAT OF FORMATION =    33.241 KCAL
    N       -0.56553       -0.00000       -0.00000
    N        0.56553        0.00000        0.00000
     2 
Profile.  67 HEAT OF FORMATION =    33.378 KCAL
    N       -0.56697       -0.00000       -0.00000
    N        0.56697        0.00000        0.00000
     2 
Profile.  68 HEAT OF FORMATION =    33.542 KCAL
    N       -0.56838       -0.00000       -0.00000
    N        0.56838        0.00000        0.00000
     2 
Profile.  69 HEAT OF FORMATION =    33.731 KCAL
    N       -0.56978       -0.00000       -0.00000
    N        0.56978        0.00000        0.00000
     2 
Profile.  70 HEAT OF FORMATION =    33.942 KCAL
    N       -0.57116       -0.00000       -0.00000
    N        0.57116        0.00000        0.00000
     2 
Profile.  71 HEAT OF FORMATION =    34.175 KCAL
    N       -0.57252       -0.00000       -0.00000
    N        0.57252        0.00000        0.00000
     2 
Profile.  72 HEAT OF FORMATION =    34.426 KCAL
    N       -0.57384       -0.00000       -0.00000
    N        0.57384        0.00000        0.00000
     2 
Profile.  73 HEAT OF FORMATION =    34.694 KCAL
    N       -0.57514       -0.00000       -0.00000
    N        0.57514        0.00000        0.00000
     2 
Profile.  74 HEAT OF FORMATION =    34.977 KCAL
    N       -0.57641       -0.00000       -0.00000
    N        0.57641        0.00000        0.00000
     2 
Profile.  75 HEAT OF FORMATION =    35.270 KCAL
    N       -0.57764       -0.00000       -0.00000
    N        0.57764        0.00000        0.00000
     2 
Profile.  76 HEAT OF FORMATION =    35.573 KCAL
    N       -0.57883       -0.00000       -0.00000
    N        0.57883        0.00000        0.00000
     2 
Profile.  77 HEAT OF FORMATION =    35.883 KCAL
    N       -0.57999       -0.00000       -0.00000
    N        0.57999        0.00000        0.00000
     2 
Profile.  78 HEAT OF FORMATION =    36.197 KCAL
    N       -0.58110       -0.00000       -0.00000
    N        0.58110        0.00000        0.00000
     2 
Profile.  79 HEAT OF FORMATION =    36.513 KCAL
    N       -0.58217       -0.00000       -0.00000
    N        0.58217        0.00000        0.00000
     2 
Profile.  80 HEAT OF FORMATION =    36.829 KCAL
    N       -0.58320       -0.00000       -0.00000
    N        0.58320        0.00000        0.00000
     2 
Profile.  81 HEAT OF FORMATION =    37.141 KCAL
    N       -0.58418       -0.00000       -0.00000
    N        0.58418        0.00000        0.00000
     2 
Profile.  82 HEAT OF FORMATION =    37.448 KCAL
    N       -0.58511       -0.00000       -0.00000
    N        0.58511        0.00000        0.00000
     2 
Profile.  83 HEAT OF FORMATION =    37.748 KCAL
    N       -0.58599       -0.00000       -0.00000
    N        0.58599        0.00000        0.00000
     2 
Profile.  84 HEAT OF FORMATION =    38.039 KCAL
    N       -0.58682       -0.00000       -0.00000
    N        0.58682        0.00000        0.00000
     2 
Profile.  85 HEAT OF FORMATION =    38.317 KCAL
    N       -0.58759       -0.00000       -0.00000
    N        0.58759        0.00000        0.00000
     2 
Profile.  86 HEAT OF FORMATION =    38.582 KCAL
    N       -0.58832       -0.00000       -0.00000
    N        0.58832        0.00000        0.00000
     2 
Profile.  87 HEAT OF FORMATION =    38.832 KCAL
    N       -0.58898       -0.00000       -0.00000
    N        0.58898        0.00000        0.00000
     2 
Profile.  88 HEAT OF FORMATION =    39.065 KCAL
    N       -0.58959       -0.00000       -0.00000
    N        0.58959        0.00000        0.00000
     2 
Profile.  89 HEAT OF FORMATION =    39.280 KCAL
    N       -0.59014       -0.00000       -0.00000
    N        0.59014        0.00000        0.00000
     2 
Profile.  90 HEAT OF FORMATION =    39.474 KCAL
    N       -0.59064       -0.00000       -0.00000
    N        0.59064        0.00000        0.00000
     2 
Profile.  91 HEAT OF FORMATION =    39.648 KCAL
    N       -0.59107       -0.00000       -0.00000
    N        0.59107        0.00000        0.00000
     2 
Profile.  92 HEAT OF FORMATION =    39.799 KCAL
    N       -0.59145       -0.00000       -0.00000
    N        0.59145        0.00000        0.00000
     2 
Profile.  93 HEAT OF FORMATION =    39.927 KCAL
    N       -0.59176       -0.00000       -0.00000
    N        0.59176        0.00000        0.00000
     2 
Profile.  94 HEAT OF FORMATION =    40.030 KCAL
    N       -0.59201       -0.00000       -0.00000
    N        0.59201        0.00000        0.00000
     2 
Profile.  95 HEAT OF FORMATION =    40.109 KCAL
    N       -0.59221       -0.00000       -0.00000
    N        0.59221        0.00000        0.00000
     2 
Profile.  96 HEAT OF FORMATION =    40.163 KCAL
    N       -0.59234       -0.00000       -0.00000
    N        0.59234        0.00000        0.00000
     2 
Profile.  97 HEAT OF FORMATION =    40.191 KCAL
    N       -0.59240       -0.00000       -0.00000
    N        0.59240        0.00000        0.00000
     2 
Profile.  98 HEAT OF FORMATION =    40.194 KCAL
    N       -0.59241       -0.00000       -0.00000
    N        0.59241        0.00000        0.00000
     2 
Profile.  99 HEAT OF FORMATION =    40.170 KCAL
    N       -0.59235       -0.00000       -0.00000
    N        0.59235        0.00000        0.00000
     2 
Profile. 100 HEAT OF FORMATION =    40.119 KCAL
    N       -0.59223       -0.00000       -0.00000
    N        0.59223        0.00000        0.00000
     2 
Profile. 101 HEAT OF FORMATION =    40.046 KCAL
    N       -0.59205       -0.00000       -0.00000
    N        0.59205        0.00000        0.00000
     2 
Profile. 102 HEAT OF FORMATION =    39.947 KCAL
    N       -0.59181       -0.00000       -0.00000
    N        0.59181        0.00000        0.00000
     2 
Profile. 103 HEAT OF FORMATION =    39.821 KCAL
    N       -0.59150       -0.00000       -0.00000
    N        0.59150        0.00000        0.00000
     2 
Profile. 104 HEAT OF FORMATION =    39.674 KCAL
    N       -0.59114       -0.00000       -0.00000
    N        0.59114        0.00000        0.00000
     2 
Profile. 105 HEAT OF FORMATION =    39.504 KCAL
    N       -0.59071       -0.00000       -0.00000
    N        0.59071        0.00000        0.00000
     2 
Profile. 106 HEAT OF FORMATION =    39.313 KCAL
    N       -0.59023       -0.00000       -0.00000
    N        0.59023        0.00000        0.00000
     2 
Profile. 107 HEAT OF FORMATION =    39.102 KCAL
    N       -0.58969       -0.00000       -0.00001
    N        0.58969        0.00000        0.00001
     2 
Profile. 108 HEAT OF FORMATION =    38.872 KCAL
    N       -0.58909       -0.00000       -0.00001
    N        0.58909        0.00000        0.00001
     2 
Profile. 109 HEAT OF FORMATION =    38.624 KCAL
    N       -0.58843       -0.00000       -0.00001
    N        0.58843        0.00000        0.00001
     2 
Profile. 110 HEAT OF FORMATION =    38.362 KCAL
    N       -0.58772       -0.00000       -0.00001
    N        0.58772        0.00000        0.00001
     2 
Profile. 111 HEAT OF FORMATION =    38.085 KCAL
    N       -0.58695       -0.00000       -0.00001
    N        0.58695        0.00000        0.00001
     2 
Profile. 112 HEAT OF FORMATION =    37.796 KCAL
    N       -0.58613       -0.00000       -0.00001
    N        0.58613        0.00000        0.00001
     2 
Profile. 113 HEAT OF FORMATION =    37.498 KCAL
    N       -0.58526       -0.00000       -0.00001
    N        0.58526        0.00000        0.00001
     2 
Profile. 114 HEAT OF FORMATION =    37.192 KCAL
    N       -0.58433       -0.00000       -0.00001
    N        0.58433        0.00000        0.00001
     2 
Profile. 115 HEAT OF FORMATION =    36.880 KCAL
    N       -0.58336       -0.00000       -0.00001
    N        0.58336        0.00000        0.00001
     2 
Profile. 116 HEAT OF FORMATION =    36.565 KCAL
    N       -0.58234       -0.00000       -0.00001
    N        0.58234        0.00000        0.00001
     2 
Profile. 117 HEAT OF FORMATION =    36.249 KCAL
    N       -0.58128       -0.00000       -0.00001
    N        0.58128        0.00000        0.00001
     2 
Profile. 118 HEAT OF FORMATION =    35.934 KCAL
    N       -0.58017       -0.00000       -0.00001
    N        0.58017        0.00000        0.00001
     2 
Profile. 119 HEAT OF FORMATION =    35.623 KCAL
    N       -0.57902       -0.00000       -0.00001
    N        0.57902        0.00000        0.00001
     2 
Profile. 120 HEAT OF FORMATION =    35.319 KCAL
    N       -0.57784       -0.00000       -0.00001
    N        0.57784        0.00000        0.00001
     2 
Profile. 121 HEAT OF FORMATION =    35.023 KCAL
    N       -0.57661       -0.00000       -0.00001
    N        0.57661        0.00000        0.00001
     2 
Profile. 122 HEAT OF FORMATION =    34.739 KCAL
    N       -0.57535       -0.00000       -0.00001
    N        0.57535        0.00000        0.00001
     2 
Profile. 123 HEAT OF FORMATION =    34.469 KCAL
    N       -0.57406       -0.00000       -0.00001
    N        0.57406        0.00000        0.00001
     2 
Profile. 124 HEAT OF FORMATION =    34.214 KCAL
    N       -0.57274       -0.00000       -0.00001
    N        0.57274        0.00000        0.00001
     2 
Profile. 125 HEAT OF FORMATION =    33.979 KCAL
    N       -0.57139       -0.00000       -0.00001
    N        0.57139        0.00000        0.00001
     2 
Profile. 126 HEAT OF FORMATION =    33.763 KCAL
    N       -0.57001       -0.00000       -0.00001
    N        0.57001        0.00000        0.00001
     2 
Profile. 127 HEAT OF FORMATION =    33.571 KCAL
    N       -0.56861       -0.00000       -0.00001
    N        0.56861        0.00000        0.00001
     2 
Profile. 128 HEAT OF FORMATION =    33.403 KCAL
    N       -0.56720       -0.00000       -0.00001
    N        0.56720        0.00000        0.00001
     2 
Profile. 129 HEAT OF FORMATION =    33.262 KCAL
    N       -0.56577       -0.00000       -0.00001
    N        0.56577        0.00000        0.00001
     2 
Profile. 130 HEAT OF FORMATION =    33.148 KCAL
    N       -0.56432       -0.00000       -0.00001
    N        0.56432        0.00000        0.00001
     2 
Profile. 131 HEAT OF FORMATION =    33.065 KCAL
    N       -0.56286       -0.00000       -0.00001
    N        0.56286        0.00000        0.00001
     2 
Profile. 132 HEAT OF FORMATION =    33.012 KCAL
    N       -0.56140       -0.00000       -0.00001
    N        0.56140        0.00000        0.00001
     2 
Profile. 133 HEAT OF FORMATION =    32.991 KCAL
    N       -0.55994       -0.00000       -0.00001
    N        0.55994        0.00000        0.00001
