    10 
Profile.   1 HEAT OF FORMATION =    37.127 KCAL =    155.341 KJ
    C       -0.31523       -2.31410       -0.35011
    C        1.01437       -2.30669       -0.36322
    O       -1.17829        1.60109       -0.35385
    N       -0.17011        1.49838        0.26792
    C        0.80943        1.40622        0.87325
    H       -0.90470       -2.61460        0.50343
    H       -0.92408       -2.01962       -1.19307
    H        1.60208       -2.00796       -1.21847
    H        1.62301       -2.60263        0.47783
    H        1.68001        1.31532        1.40987
    10 
Profile.   2 HEAT OF FORMATION =    37.193 KCAL =    155.617 KJ
    C       -0.31523       -2.31415       -0.35013
    C        1.01437       -2.30673       -0.36323
    O       -1.17867        1.60115       -0.35406
    N       -0.16765        1.49816        0.26945
    C        0.80675        1.40653        0.87158
    H       -0.90468       -2.61458        0.50343
    H       -0.92402       -2.01979       -1.19305
    H        1.60212       -2.00800       -1.21847
    H        1.62303       -2.60266        0.47790
    H        1.68561        1.31475        1.41329
    10 
Profile.   3 HEAT OF FORMATION =    37.129 KCAL =    155.349 KJ
    C       -0.31522       -2.31420       -0.35013
    C        1.01439       -2.30678       -0.36323
    O       -1.17809        1.60112       -0.35368
    N       -0.17009        1.49842        0.26796
    C        0.80987        1.40628        0.87348
    H       -0.90469       -2.61454        0.50346
    H       -0.92408       -2.01997       -1.19317
    H        1.60216       -2.00801       -1.21842
    H        1.62295       -2.60270        0.47788
    H        1.67993        1.31533        1.40976
    10 
Profile.   4 HEAT OF FORMATION =    37.131 KCAL =    155.355 KJ
    C       -0.31519       -2.31422       -0.35014
    C        1.01442       -2.30686       -0.36327
    O       -1.17809        1.60114       -0.35365
    N       -0.17004        1.49843        0.26802
    C        0.81017        1.40632        0.87364
    H       -0.90469       -2.61440        0.50337
    H       -0.92423       -2.02041       -1.19333
    H        1.60220       -2.00781       -1.21822
    H        1.62280       -2.60286        0.47808
    H        1.67990        1.31525        1.40972
    10 
Profile.   5 HEAT OF FORMATION =    37.176 KCAL =    155.546 KJ
    C       -0.31524       -2.31430       -0.34979
    C        1.01451       -2.30687       -0.36360
    O       -1.17890        1.60124       -0.35413
    N       -0.16745        1.49819        0.26964
    C        0.80806        1.40658        0.87232
    H       -0.90256       -2.61318        0.50009
    H       -0.92612       -2.02056       -1.19491
    H        1.60045       -2.00800       -1.21609
    H        1.62405       -2.60368        0.48038
    H        1.68205        1.31491        1.41103
    10 
Profile.   6 HEAT OF FORMATION =    37.126 KCAL =    155.333 KJ
    C       -0.31583       -2.31169       -0.35057
    C        1.01379       -2.30466       -0.36249
    O       -1.17799        1.59847       -0.35352
    N       -0.16897        1.49710        0.26796
    C        0.81009        1.40590        0.87311
    H       -0.90611       -2.61164        0.50259
    H       -0.92381       -2.01767       -1.19420
    H        1.60226       -2.00659       -1.21751
    H        1.62168       -2.60040        0.47917
    H        1.68227        1.31547        1.41062
    10 
Profile.   7 HEAT OF FORMATION =    37.124 KCAL =    155.327 KJ
    C       -0.31858       -2.29949       -0.35167
    C        1.01108       -2.29482       -0.35959
    O       -1.17696        1.58678       -0.35361
    N       -0.16715        1.49016        0.26740
    C        0.81273        1.40366        0.87192
    H       -0.91202       -2.59923        0.49941
    H       -0.92366       -2.00337       -1.19682
    H        1.60267       -1.99691       -1.21241
    H        1.61581       -2.59253        0.48368
    H        1.68554        1.31731        1.40878
    10 
Profile.   8 HEAT OF FORMATION =    37.123 KCAL =    155.324 KJ
    C       -0.32132       -2.28735       -0.35275
    C        1.00836       -2.28501       -0.35670
    O       -1.17586        1.57518       -0.35370
    N       -0.16539        1.48322        0.26684
    C        0.81529        1.40139        0.87071
    H       -0.91779       -2.58692        0.49625
    H       -0.92332       -1.98908       -1.19925
    H        1.60317       -1.98719       -1.20737
    H        1.61000       -2.58465        0.48808
    H        1.68896        1.31927        1.40705
    10 
Profile.   9 HEAT OF FORMATION =    37.123 KCAL =    155.323 KJ
    C       -0.32406       -2.27515       -0.35381
    C        1.00563       -2.27515       -0.35381
    O       -1.17474        1.56357       -0.35381
    N       -0.16361        1.47623        0.26631
    C        0.81783        1.39907        0.86949
    H       -0.92356       -2.57469        0.49308
    H       -0.92302       -1.97474       -1.20181
    H        1.60350       -1.97746       -1.20232
    H        1.60426       -2.57681        0.49240
    H        1.69215        1.32134        1.40525
    10 
Profile.  10 HEAT OF FORMATION =    37.124 KCAL =    155.325 KJ
    C       -0.32680       -2.26290       -0.35487
    C        1.00288       -2.26523       -0.35089
    O       -1.17362        1.55193       -0.35395
    N       -0.16183        1.46921        0.26575
    C        0.82040        1.39674        0.86830
    H       -0.92941       -2.56250        0.48978
    H       -0.92265       -1.96051       -1.20427
    H        1.60374       -1.96769       -1.19741
    H        1.59848       -2.56905        0.49667
    H        1.69545        1.32340        1.40365
    10 
Profile.  11 HEAT OF FORMATION =    37.124 KCAL =    155.328 KJ
    C       -0.32906       -2.25274       -0.35573
    C        1.00061       -2.25699       -0.34848
    O       -1.17269        1.54226       -0.35407
    N       -0.16032        1.46339        0.26529
    C        0.82251        1.39480        0.86733
    H       -0.93432       -2.55239        0.48702
    H       -0.92243       -1.94868       -1.20640
    H        1.60385       -1.95957       -1.19326
    H        1.59368       -2.56264        0.50019
    H        1.69799        1.32507        1.40231
    10 
Profile.  12 HEAT OF FORMATION =    37.126 KCAL =    155.337 KJ
    C       -0.33227       -2.23836       -0.35698
    C        0.99735       -2.24533       -0.34505
    O       -1.17130        1.52853       -0.35420
    N       -0.15818        1.45518        0.26459
    C        0.82542        1.39208        0.86593
    H       -0.94116       -2.53800        0.48313
    H       -0.92196       -1.93189       -1.20922
    H        1.60420       -1.94791       -1.18735
    H        1.58688       -2.55349        0.50518
    H        1.70159        1.32724        1.40056
    10 
Profile.  13 HEAT OF FORMATION =    37.169 KCAL =    155.517 KJ
    C       -0.33313       -2.23539       -0.35714
    C        0.99636       -2.24287       -0.34441
    O       -1.17155        1.52573       -0.35456
    N       -0.15620        1.45343        0.26525
    C        0.82455        1.39164        0.86497
    H       -0.94121       -2.53475        0.47999
    H       -0.92153       -1.92935       -1.20879
    H        1.60510       -1.94494       -1.18855
    H        1.58716       -2.55306        0.50921
    H        1.70657        1.32754        1.40243
    10 
Profile.  14 HEAT OF FORMATION =    37.209 KCAL =    155.683 KJ
    C       -0.33310       -2.23550       -0.35722
    C        0.99645       -2.24296       -0.34441
    O       -1.17146        1.52574       -0.35451
    N       -0.15550        1.45345        0.26567
    C        0.82305        1.39178        0.86406
    H       -0.94236       -2.53522        0.48209
    H       -0.92190       -1.92867       -1.20956
    H        1.60433       -1.94541       -1.18648
    H        1.58563       -2.55186        0.50655
    H        1.70748        1.32727        1.40328
    10 
Profile.  15 HEAT OF FORMATION =    37.127 KCAL =    155.340 KJ
    C       -0.33308       -2.23558       -0.35723
    C        0.99652       -2.24301       -0.34442
    O       -1.17116        1.52574       -0.35433
    N       -0.15773        1.45365        0.26430
    C        0.82539        1.39165        0.86551
    H       -0.94255       -2.53533        0.48244
    H       -0.92216       -1.92848       -1.20977
    H        1.60409       -1.94548       -1.18609
    H        1.58533       -2.55169        0.50612
    H        1.70147        1.32760        1.39983
    10 
Profile.  16 HEAT OF FORMATION =    37.249 KCAL =    155.851 KJ
    C       -0.33309       -2.23564       -0.35725
    C        0.99651       -2.24306       -0.34445
    O       -1.17185        1.52582       -0.35476
    N       -0.15522        1.45356        0.26583
    C        0.82198        1.39190        0.86346
    H       -0.94250       -2.53541        0.48243
    H       -0.92213       -1.92853       -1.20966
    H        1.60410       -1.94545       -1.18610
    H        1.58538       -2.55175        0.50616
    H        1.70729        1.32712        1.40353
    10 
Profile.  17 HEAT OF FORMATION =    37.129 KCAL =    155.348 KJ
    C       -0.33308       -2.23571       -0.35725
    C        0.99652       -2.24310       -0.34446
    O       -1.17155        1.52583       -0.35459
    N       -0.15786        1.45379        0.26421
    C        0.82467        1.39174        0.86514
    H       -0.94251       -2.53550        0.48245
    H       -0.92221       -1.92852       -1.20971
    H        1.60407       -1.94546       -1.18610
    H        1.58534       -2.55179        0.50606
    H        1.70134        1.32754        1.40001
