     6 
Profile.1 HEAT OF FORMATION =    13.855 KCAL 
    C        0.00000        0.00000        0.00000
    C        1.32958        0.00000        0.00000
    H        1.92808        0.89885        0.00000
    H        1.92808       -0.89885        0.00000
    H       -0.59850       -0.89885       -0.00000
    H       -0.59850        0.89885        0.00000
     6 
Profile.2 HEAT OF FORMATION =    13.888 KCAL 
    C        0.00000        0.00000        0.00000
    C        1.32958        0.00000        0.00000
    H        1.92808        0.89885        0.00000
    H        1.92808       -0.89885        0.00000
    H       -0.59850       -0.89830        0.03137
    H       -0.59850        0.89830       -0.03137
     6 
Profile.3 HEAT OF FORMATION =    13.986 KCAL 
    C        0.00000        0.00000        0.00000
    C        1.32958        0.00000        0.00000
    H        1.92808        0.89885        0.00000
    H        1.92808       -0.89885        0.00000
    H       -0.59850       -0.89666        0.06270
    H       -0.59850        0.89666       -0.06270
     6 
Profile.4 HEAT OF FORMATION =    14.150 KCAL 
    C        0.00000        0.00000        0.00000
    C        1.32958        0.00000        0.00000
    H        1.92808        0.89885        0.00000
    H        1.92808       -0.89885        0.00000
    H       -0.59850       -0.89392        0.09396
    H       -0.59850        0.89392       -0.09396
     6 
Profile.5 HEAT OF FORMATION =    14.378 KCAL 
    C        0.00000        0.00000        0.00000
    C        1.32958        0.00000        0.00000
    H        1.92808        0.89885        0.00000
    H        1.92808       -0.89885        0.00000
    H       -0.59850       -0.89010        0.12510
    H       -0.59850        0.89010       -0.12510
     6 
Profile.6 HEAT OF FORMATION =    14.672 KCAL 
    C        0.00000        0.00000        0.00000
    C        1.32958        0.00000        0.00000
    H        1.92808        0.89885        0.00000
    H        1.92808       -0.89885        0.00000
    H       -0.59850       -0.88519        0.15608
    H       -0.59850        0.88519       -0.15608
     6 
Profile.7 HEAT OF FORMATION =    15.031 KCAL 
    C        0.00000        0.00000        0.00000
    C        1.33032        0.00000        0.00000
    H        1.92843        0.89895        0.00000
    H        1.92843       -0.89895        0.00000
    H       -0.59812       -0.87931        0.18690
    H       -0.59812        0.87931       -0.18690
     6 
Profile.8 HEAT OF FORMATION =    15.456 KCAL 
    C        0.00000        0.00000        0.00000
    C        1.33032        0.00000        0.00000
    H        1.92843        0.89895        0.00000
    H        1.92843       -0.89895        0.00000
    H       -0.59812       -0.87225        0.21748
    H       -0.59812        0.87225       -0.21748
     6 
Profile.9 HEAT OF FORMATION =    15.945 KCAL 
    C        0.00000        0.00000        0.00000
    C        1.33032        0.00000        0.00000
    H        1.92843        0.89895        0.00000
    H        1.92843       -0.89895        0.00000
    H       -0.59812       -0.86413        0.24779
    H       -0.59812        0.86413       -0.24779
     6 
Profile.10 HEAT OF FORMATION =    16.499 KCAL 
    C        0.00000        0.00000        0.00000
    C        1.33097        0.00000        0.00000
    H        1.92903        0.89901        0.00000
    H        1.92903       -0.89901        0.00000
    H       -0.59806       -0.85501        0.27781
    H       -0.59806        0.85501       -0.27781
     6 
Profile.11 HEAT OF FORMATION =    17.118 KCAL 
    C        0.00000        0.00000        0.00000
    C        1.33097        0.00000        0.00000
    H        1.92903        0.89901        0.00000
    H        1.92903       -0.89901        0.00000
    H       -0.59806       -0.84480        0.30748
    H       -0.59806        0.84480       -0.30748
     6 
Profile.12 HEAT OF FORMATION =    17.802 KCAL 
    C        0.00000        0.00000        0.00000
    C        1.33154        0.00000        0.00000
    H        1.92948        0.89909        0.00000
    H        1.92948       -0.89909        0.00000
    H       -0.59794       -0.83362        0.33681
    H       -0.59794        0.83362       -0.33681
     6 
Profile.13 HEAT OF FORMATION =    18.551 KCAL 
    C        0.00000        0.00000        0.00000
    C        1.33154        0.00000        0.00000
    H        1.92948        0.89909        0.00000
    H        1.92948       -0.89909        0.00000
    H       -0.59794       -0.82136        0.36569
    H       -0.59794        0.82136       -0.36569
     6 
Profile.14 HEAT OF FORMATION =    19.363 KCAL 
    C        0.00000        0.00000        0.00000
    C        1.33226        0.00000        0.00000
    H        1.93004        0.89914        0.00000
    H        1.93004       -0.89914        0.00000
    H       -0.59778       -0.80814        0.39416
    H       -0.59778        0.80814       -0.39416
     6 
Profile.15 HEAT OF FORMATION =    20.241 KCAL 
    C        0.00000        0.00000        0.00000
    C        1.33226        0.00000        0.00000
    H        1.93004        0.89914        0.00000
    H        1.93004       -0.89914        0.00000
    H       -0.59778       -0.79389        0.42212
    H       -0.59778        0.79389       -0.42212
     6 
Profile.16 HEAT OF FORMATION =    21.182 KCAL 
    C        0.00000        0.00000        0.00000
    C        1.33310        0.00000        0.00000
    H        1.93072        0.89920        0.00000
    H        1.93072       -0.89920        0.00000
    H       -0.59762       -0.77873        0.44960
    H       -0.59762        0.77873       -0.44960
     6 
Profile.17 HEAT OF FORMATION =    22.187 KCAL 
    C        0.00000        0.00000        0.00000
    C        1.33310        0.00000        0.00000
    H        1.93072        0.89920        0.00000
    H        1.93072       -0.89920        0.00000
    H       -0.59762       -0.76256        0.47650
    H       -0.59762        0.76256       -0.47650
     6 
Profile.18 HEAT OF FORMATION =    23.255 KCAL 
    C        0.00000        0.00000        0.00000
    C        1.33407        0.00000        0.00000
    H        1.93153        0.89926        0.00000
    H        1.93153       -0.89926        0.00000
    H       -0.59745       -0.74552        0.50286
    H       -0.59745        0.74552       -0.50286
     6 
Profile.19 HEAT OF FORMATION =    24.387 KCAL 
    C        0.00000        0.00000        0.00000
    C        1.33407        0.00000        0.00000
    H        1.93153        0.89926        0.00000
    H        1.93153       -0.89926        0.00000
    H       -0.59745       -0.72751        0.52857
    H       -0.59745        0.72751       -0.52857
     6 
Profile.20 HEAT OF FORMATION =    25.582 KCAL 
    C        0.00000        0.00000        0.00000
    C        1.33518        0.00000        0.00000
    H        1.93245        0.89931        0.00000
    H        1.93245       -0.89931        0.00000
    H       -0.59727       -0.70867        0.55367
    H       -0.59727        0.70867       -0.55367
     6 
Profile.21 HEAT OF FORMATION =    26.839 KCAL 
    C        0.00000        0.00000        0.00000
    C        1.33574        0.00000        0.00000
    H        1.93300        0.89942        0.00000
    H        1.93300       -0.89942        0.00000
    H       -0.59726       -0.68899        0.57813
    H       -0.59726        0.68899       -0.57813
     6 
Profile.22 HEAT OF FORMATION =    28.159 KCAL 
    C        0.00000        0.00000        0.00000
    C        1.33637        0.00000        0.00000
    H        1.93351        0.89943        0.00000
    H        1.93351       -0.89943        0.00000
    H       -0.59714       -0.66841        0.60184
    H       -0.59714        0.66841       -0.60184
     6 
Profile.23 HEAT OF FORMATION =    29.541 KCAL 
    C        0.00000        0.00000        0.00000
    C        1.33705        0.00000        0.00000
    H        1.93410        0.89946        0.00000
    H        1.93410       -0.89946        0.00000
    H       -0.59705       -0.64702        0.62482
    H       -0.59705        0.64702       -0.62482
     6 
Profile.24 HEAT OF FORMATION =    30.984 KCAL 
    C        0.00000        0.00000        0.00000
    C        1.33777        0.00000        0.00000
    H        1.93472        0.89948        0.00000
    H        1.93472       -0.89948        0.00000
    H       -0.59695       -0.62483        0.64703
    H       -0.59695        0.62483       -0.64703
     6 
Profile.25 HEAT OF FORMATION =    32.489 KCAL 
    C        0.00000        0.00000        0.00000
    C        1.33852        0.00000        0.00000
    H        1.93538        0.89951        0.00000
    H        1.93538       -0.89951        0.00000
    H       -0.59685       -0.60189        0.66846
    H       -0.59685        0.60189       -0.66846
     6 
Profile.26 HEAT OF FORMATION =    34.054 KCAL 
    C        0.00000        0.00000        0.00000
    C        1.33932        0.00000        0.00000
    H        1.93607        0.89953        0.00000
    H        1.93607       -0.89953        0.00000
    H       -0.59675       -0.57820        0.68908
    H       -0.59675        0.57820       -0.68908
     6 
Profile.27 HEAT OF FORMATION =    35.680 KCAL 
    C        0.00000        0.00000        0.00000
    C        1.34016        0.00000        0.00000
    H        1.93681        0.89954        0.00000
    H        1.93681       -0.89954        0.00000
    H       -0.59665       -0.55381        0.70885
    H       -0.59665        0.55381       -0.70885
     6 
Profile.28 HEAT OF FORMATION =    37.365 KCAL 
    C        0.00000        0.00000        0.00000
    C        1.34104        0.00000        0.00000
    H        1.93758        0.89956        0.00000
    H        1.93758       -0.89956        0.00000
    H       -0.59655       -0.52875        0.72776
    H       -0.59655        0.52875       -0.72776
     6 
Profile.29 HEAT OF FORMATION =    39.110 KCAL 
    C        0.00000        0.00000        0.00000
    C        1.34196        0.00000        0.00000
    H        1.93840        0.89957        0.00000
    H        1.93840       -0.89957        0.00000
    H       -0.59644       -0.50303        0.74578
    H       -0.59644        0.50303       -0.74578
     6 
Profile.30 HEAT OF FORMATION =    40.912 KCAL 
    C        0.00000        0.00000        0.00000
    C        1.34293        0.00000        0.00000
    H        1.93926        0.89958        0.00000
    H        1.93926       -0.89958        0.00000
    H       -0.59632       -0.47671        0.76289
    H       -0.59632        0.47671       -0.76289
     6 
Profile.31 HEAT OF FORMATION =    42.773 KCAL 
    C        0.00000        0.00000        0.00000
    C        1.34395        0.00000        0.00000
    H        1.94016        0.89959        0.00000
    H        1.94016       -0.89959        0.00000
    H       -0.59621       -0.44979        0.77907
    H       -0.59621        0.44979       -0.77907
     6 
Profile.32 HEAT OF FORMATION =    44.691 KCAL 
    C        0.00000        0.00000        0.00000
    C        1.34501        0.00000        0.00000
    H        1.94110        0.89959        0.00000
    H        1.94110       -0.89959        0.00000
    H       -0.59609       -0.42233        0.79429
    H       -0.59609        0.42233       -0.79429
     6 
Profile.33 HEAT OF FORMATION =    46.666 KCAL 
    C        0.00000        0.00000        0.00000
    C        1.34613        0.00000        0.00000
    H        1.94209        0.89960        0.00000
    H        1.94209       -0.89960        0.00000
    H       -0.59596       -0.39436        0.80855
    H       -0.59596        0.39436       -0.80855
     6 
Profile.34 HEAT OF FORMATION =    48.696 KCAL 
    C        0.00000        0.00000        0.00000
    C        1.34730        0.00000        0.00000
    H        1.94312        0.89960        0.00000
    H        1.94312       -0.89960        0.00000
    H       -0.59582       -0.36590        0.82182
    H       -0.59582        0.36590       -0.82182
     6 
Profile.35 HEAT OF FORMATION =    50.781 KCAL 
    C        0.00000        0.00000        0.00000
    C        1.34853        0.00000        0.00000
    H        1.94421        0.89960        0.00000
    H        1.94421       -0.89960        0.00000
    H       -0.59568       -0.33700        0.83409
    H       -0.59568        0.33700       -0.83409
     6 
Profile.36 HEAT OF FORMATION =    52.919 KCAL 
    C        0.00000        0.00000        0.00000
    C        1.34981        0.00000        0.00000
    H        1.94534        0.89960        0.00000
    H        1.94534       -0.89960        0.00000
    H       -0.59553       -0.30768        0.84534
    H       -0.59553        0.30768       -0.84534
     6 
Profile.37 HEAT OF FORMATION =    55.112 KCAL 
    C        0.00000        0.00000        0.00000
    C        1.35115        0.00000        0.00000
    H        1.94651        0.89960        0.00000
    H        1.94651       -0.89960        0.00000
    H       -0.59536       -0.27799        0.85557
    H       -0.59536        0.27799       -0.85557
     6 
Profile.38 HEAT OF FORMATION =    57.356 KCAL 
    C        0.00000        0.00000        0.00000
    C        1.35256        0.00000        0.00000
    H        1.94774        0.89959        0.00000
    H        1.94774       -0.89959        0.00000
    H       -0.59518       -0.24796        0.86475
    H       -0.59518        0.24796       -0.86475
     6 
Profile.39 HEAT OF FORMATION =    59.651 KCAL 
    C        0.00000        0.00000        0.00000
    C        1.35403        0.00000        0.00000
    H        1.94901        0.89959        0.00000
    H        1.94901       -0.89959        0.00000
    H       -0.59499       -0.21763        0.87287
    H       -0.59499        0.21763       -0.87287
     6 
Profile.40 HEAT OF FORMATION =    61.996 KCAL 
    C        0.00000        0.00000        0.00000
    C        1.35557        0.00000        0.00000
    H        1.95034        0.89960        0.00000
    H        1.95034       -0.89960        0.00000
    H       -0.59477       -0.18704        0.87994
    H       -0.59477        0.18704       -0.87994
     6 
Profile.41 HEAT OF FORMATION =    64.390 KCAL 
    C        0.00000        0.00000        0.00000
    C        1.35718        0.00000        0.00000
    H        1.95172        0.89960        0.00000
    H        1.95172       -0.89960        0.00000
    H       -0.59453       -0.15621        0.88593
    H       -0.59453        0.15621       -0.88593
     6 
Profile.42 HEAT OF FORMATION =    66.831 KCAL 
    C        0.00000        0.00000        0.00000
    C        1.35887        0.00000        0.00000
    H        1.95315        0.89961        0.00000
    H        1.95315       -0.89961        0.00000
    H       -0.59427       -0.12520        0.89086
    H       -0.59427        0.12520       -0.89086
     6 
Profile.43 HEAT OF FORMATION =    69.319 KCAL 
    C        0.00000        0.00000        0.00000
    C        1.36064        0.00000        0.00000
    H        1.95463        0.89962        0.00000
    H        1.95463       -0.89962        0.00000
    H       -0.59399       -0.09404        0.89470
    H       -0.59399        0.09404       -0.89470
     6 
Profile.44 HEAT OF FORMATION =    71.851 KCAL 
    C        0.00000        0.00000        0.00000
    C        1.36250        0.00000        0.00000
    H        1.95617        0.89965        0.00000
    H        1.95617       -0.89965        0.00000
    H       -0.59367       -0.06276        0.89745
    H       -0.59367        0.06276       -0.89745
     6 
Profile.45 HEAT OF FORMATION =    74.427 KCAL 
    C        0.00000        0.00000        0.00000
    C        1.36445        0.00000        0.00000
    H        1.95776        0.89968        0.00000
    H        1.95776       -0.89968        0.00000
    H       -0.59331       -0.03140        0.89913
    H       -0.59331        0.03140       -0.89913
     6 
Profile.46 HEAT OF FORMATION =    77.889 KCAL 
    C        0.00000        0.00000        0.00000
    C        1.33783        0.00000        0.00000
    H        1.97041        0.87877        0.00000
    H        1.97041       -0.87877        0.00000
    H       -0.63258       -0.00000        0.87877
    H       -0.63258        0.00000       -0.87877
     6 
Profile.47 HEAT OF FORMATION =    74.427 KCAL 
    C        0.00000        0.00000        0.00000
    C        1.36428        0.00000        0.00000
    H        1.95771        0.89997        0.00000
    H        1.95771       -0.89997        0.00000
    H       -0.59342        0.03141        0.89942
    H       -0.59342       -0.03141       -0.89942
     6 
Profile.48 HEAT OF FORMATION =    71.851 KCAL 
    C        0.00000        0.00000        0.00000
    C        1.36225        0.00000        0.00000
    H        1.95615        0.90020        0.00000
    H        1.95615       -0.90020        0.00000
    H       -0.59390        0.06279        0.89801
    H       -0.59390       -0.06279       -0.89801
     6 
Profile.49 HEAT OF FORMATION =    69.319 KCAL 
    C        0.00000        0.00000        0.00000
    C        1.36030        0.00000        0.00000
    H        1.95445        0.90020        0.00000
    H        1.95445       -0.90020        0.00000
    H       -0.59415        0.09410        0.89527
    H       -0.59415       -0.09410       -0.89527
     6 
Profile.50 HEAT OF FORMATION =    66.831 KCAL 
    C        0.00000        0.00000        0.00000
    C        1.35855        0.00000        0.00000
    H        1.95299        0.90013        0.00000
    H        1.95299       -0.90013        0.00000
    H       -0.59444        0.12527        0.89137
    H       -0.59444       -0.12527       -0.89137
     6 
Profile.51 HEAT OF FORMATION =    64.390 KCAL 
    C        0.00000        0.00000        0.00000
    C        1.35688        0.00000        0.00000
    H        1.95158        0.90009        0.00000
    H        1.95158       -0.90009        0.00000
    H       -0.59471        0.15630        0.88642
    H       -0.59471       -0.15630       -0.88642
     6 
Profile.52 HEAT OF FORMATION =    61.996 KCAL 
    C        0.00000        0.00000        0.00000
    C        1.35527        0.00000        0.00000
    H        1.95022        0.90006        0.00000
    H        1.95022       -0.90006        0.00000
    H       -0.59494        0.18713        0.88039
    H       -0.59494       -0.18713       -0.88039
     6 
Profile.53 HEAT OF FORMATION =    59.651 KCAL 
    C        0.00000        0.00000        0.00000
    C        1.35375        0.00000        0.00000
    H        1.94891        0.90004        0.00000
    H        1.94891       -0.90004        0.00000
    H       -0.59516        0.21774        0.87330
    H       -0.59516       -0.21774       -0.87330
     6 
Profile.54 HEAT OF FORMATION =    57.356 KCAL 
    C        0.00000        0.00000        0.00000
    C        1.35229        0.00000        0.00000
    H        1.94764        0.90001        0.00000
    H        1.94764       -0.90001        0.00000
    H       -0.59535        0.24808        0.86515
    H       -0.59535       -0.24808       -0.86515
     6 
Profile.55 HEAT OF FORMATION =    55.112 KCAL 
    C        0.00000        0.00000        0.00000
    C        1.35089        0.00000        0.00000
    H        1.94643        0.89999        0.00000
    H        1.94643       -0.89999        0.00000
    H       -0.59553        0.27811        0.85594
    H       -0.59553       -0.27811       -0.85594
     6 
Profile.56 HEAT OF FORMATION =    52.919 KCAL 
    C        0.00000        0.00000        0.00000
    C        1.34956        0.00000        0.00000
    H        1.94526        0.89997        0.00000
    H        1.94526       -0.89997        0.00000
    H       -0.59570        0.30781        0.84570
    H       -0.59570       -0.30781       -0.84570
     6 
Profile.57 HEAT OF FORMATION =    50.781 KCAL 
    C        0.00000        0.00000        0.00000
    C        1.34829        0.00000        0.00000
    H        1.94414        0.89995        0.00000
    H        1.94414       -0.89995        0.00000
    H       -0.59585        0.33713        0.83442
    H       -0.59585       -0.33713       -0.83442
     6 
Profile.58 HEAT OF FORMATION =    48.696 KCAL 
    C        0.00000        0.00000        0.00000
    C        1.34707        0.00000        0.00000
    H        1.94307        0.89993        0.00000
    H        1.94307       -0.89993        0.00000
    H       -0.59599        0.36604        0.82213
    H       -0.59599       -0.36604       -0.82213
     6 
Profile.59 HEAT OF FORMATION =    46.666 KCAL 
    C        0.00000        0.00000        0.00000
    C        1.34591        0.00000        0.00000
    H        1.94204        0.89991        0.00000
    H        1.94204       -0.89991        0.00000
    H       -0.59613        0.39450        0.80884
    H       -0.59613       -0.39450       -0.80884
     6 
Profile.60 HEAT OF FORMATION =    44.691 KCAL 
    C        0.00000        0.00000        0.00000
    C        1.34481        0.00000        0.00000
    H        1.94106        0.89989        0.00000
    H        1.94106       -0.89989        0.00000
    H       -0.59625        0.42247        0.79456
    H       -0.59625       -0.42247       -0.79456
     6 
Profile.61 HEAT OF FORMATION =    42.773 KCAL 
    C        0.00000        0.00000        0.00000
    C        1.34375        0.00000        0.00000
    H        1.94012        0.89987        0.00000
    H        1.94012       -0.89987        0.00000
    H       -0.59637        0.44993        0.77931
    H       -0.59637       -0.44993       -0.77931
     6 
Profile.62 HEAT OF FORMATION =    40.912 KCAL 
    C        0.00000        0.00000        0.00000
    C        1.34274        0.00000        0.00000
    H        1.93922        0.89985        0.00000
    H        1.93922       -0.89985        0.00000
    H       -0.59648        0.47685        0.76311
    H       -0.59648       -0.47685       -0.76311
     6 
Profile.63 HEAT OF FORMATION =    39.110 KCAL 
    C        0.00000        0.00000        0.00000
    C        1.34178        0.00000        0.00000
    H        1.93837        0.89982        0.00000
    H        1.93837       -0.89982        0.00000
    H       -0.59659        0.50317        0.74598
    H       -0.59659       -0.50317       -0.74598
     6 
Profile.64 HEAT OF FORMATION =    37.365 KCAL 
    C        0.00000        0.00000        0.00000
    C        1.34086        0.00000        0.00000
    H        1.93756        0.89979        0.00000
    H        1.93756       -0.89979        0.00000
    H       -0.59670        0.52888        0.72795
    H       -0.59670       -0.52888       -0.72795
     6 
Profile.65 HEAT OF FORMATION =    35.680 KCAL 
    C        0.00000        0.00000        0.00000
    C        1.33999        0.00000        0.00000
    H        1.93679        0.89976        0.00000
    H        1.93679       -0.89976        0.00000
    H       -0.59680        0.55395        0.70902
    H       -0.59680       -0.55395       -0.70902
     6 
Profile.66 HEAT OF FORMATION =    34.054 KCAL 
    C        0.00000        0.00000        0.00000
    C        1.33916        0.00000        0.00000
    H        1.93606        0.89973        0.00000
    H        1.93606       -0.89973        0.00000
    H       -0.59690        0.57834        0.68923
    H       -0.59690       -0.57834       -0.68923
     6 
Profile.67 HEAT OF FORMATION =    32.489 KCAL 
    C        0.00000        0.00000        0.00000
    C        1.33837        0.00000        0.00000
    H        1.93537        0.89970        0.00000
    H        1.93537       -0.89970        0.00000
    H       -0.59700        0.60202        0.66861
    H       -0.59700       -0.60202       -0.66861
     6 
Profile.68 HEAT OF FORMATION =    30.984 KCAL 
    C        0.00000        0.00000        0.00000
    C        1.33763        0.00000        0.00000
    H        1.93472        0.89966        0.00000
    H        1.93472       -0.89966        0.00000
    H       -0.59709        0.62496        0.64716
    H       -0.59709       -0.62496       -0.64716
     6 
Profile.69 HEAT OF FORMATION =    29.541 KCAL 
    C        0.00000        0.00000        0.00000
    C        1.33692        0.00000        0.00000
    H        1.93410        0.89963        0.00000
    H        1.93410       -0.89963        0.00000
    H       -0.59718        0.64714        0.62493
    H       -0.59718       -0.64714       -0.62493
     6 
Profile.70 HEAT OF FORMATION =    28.159 KCAL 
    C        0.00000        0.00000        0.00000
    C        1.33625        0.00000        0.00000
    H        1.93352        0.89959        0.00000
    H        1.93352       -0.89959        0.00000
    H       -0.59728        0.66852        0.60194
    H       -0.59728       -0.66852       -0.60194
     6 
Profile.71 HEAT OF FORMATION =    26.839 KCAL 
    C        0.00000        0.00000        0.00000
    C        1.33561        0.00000        0.00000
    H        1.93298        0.89955        0.00000
    H        1.93298       -0.89955        0.00000
    H       -0.59736        0.68909        0.57822
    H       -0.59736       -0.68909       -0.57822
     6 
Profile.72 HEAT OF FORMATION =    25.582 KCAL 
    C        0.00000        0.00000        0.00000
    C        1.33502        0.00000        0.00000
    H        1.93247        0.89951        0.00000
    H        1.93247       -0.89951        0.00000
    H       -0.59745        0.70882        0.55379
    H       -0.59745       -0.70882       -0.55379
     6 
Profile.73 HEAT OF FORMATION =    24.387 KCAL 
    C        0.00000        0.00000        0.00000
    C        1.33502        0.00000        0.00000
    H        1.93247        0.89951        0.00000
    H        1.93247       -0.89951        0.00000
    H       -0.59745        0.72772        0.52872
    H       -0.59745       -0.72772       -0.52872
     6 
Profile.74 HEAT OF FORMATION =    23.255 KCAL 
    C        0.00000        0.00000        0.00000
    C        1.33388        0.00000        0.00000
    H        1.93159        0.89949        0.00000
    H        1.93159       -0.89949        0.00000
    H       -0.59770        0.74571        0.50299
    H       -0.59770       -0.74571       -0.50299
     6 
Profile.75 HEAT OF FORMATION =    22.187 KCAL 
    C        0.00000        0.00000        0.00000
    C        1.33388        0.00000        0.00000
    H        1.93159        0.89949        0.00000
    H        1.93159       -0.89949        0.00000
    H       -0.59770        0.76281        0.47666
    H       -0.59770       -0.76281       -0.47666
     6 
Profile.76 HEAT OF FORMATION =    21.182 KCAL 
    C        0.00000        0.00000        0.00000
    C        1.33292        0.00000        0.00000
    H        1.93074        0.89940        0.00000
    H        1.93074       -0.89940        0.00000
    H       -0.59782        0.77890        0.44970
    H       -0.59782       -0.77890       -0.44970
     6 
Profile.77 HEAT OF FORMATION =    20.241 KCAL 
    C        0.00000        0.00000        0.00000
    C        1.33292        0.00000        0.00000
    H        1.93074        0.89940        0.00000
    H        1.93074       -0.89940        0.00000
    H       -0.59782        0.79412        0.42224
    H       -0.59782       -0.79412       -0.42224
     6 
Profile.78 HEAT OF FORMATION =    19.363 KCAL 
    C        0.00000        0.00000        0.00000
    C        1.33211        0.00000        0.00000
    H        1.93007        0.89930        0.00000
    H        1.93007       -0.89930        0.00000
    H       -0.59796        0.80829        0.39423
    H       -0.59796       -0.80829       -0.39423
     6 
Profile.79 HEAT OF FORMATION =    18.551 KCAL 
    C        0.00000        0.00000        0.00000
    C        1.33211        0.00000        0.00000
    H        1.93007        0.89930        0.00000
    H        1.93007       -0.89930        0.00000
    H       -0.59796        0.82155        0.36578
    H       -0.59796       -0.82155       -0.36578
     6 
Profile.80 HEAT OF FORMATION =    17.802 KCAL 
    C        0.00000        0.00000        0.00000
    C        1.33141        0.00000        0.00000
    H        1.92950        0.89922        0.00000
    H        1.92950       -0.89922        0.00000
    H       -0.59809        0.83374        0.33685
    H       -0.59809       -0.83374       -0.33685
     6 
Profile.81 HEAT OF FORMATION =    17.118 KCAL 
    C        0.00000        0.00000        0.00000
    C        1.33141        0.00000        0.00000
    H        1.92950        0.89922        0.00000
    H        1.92950       -0.89922        0.00000
    H       -0.59809        0.84499        0.30755
    H       -0.59809       -0.84499       -0.30755
     6 
Profile.82 HEAT OF FORMATION =    16.499 KCAL 
    C        0.00000        0.00000        0.00000
    C        1.33084        0.00000        0.00000
    H        1.92904        0.89914        0.00000
    H        1.92904       -0.89914        0.00000
    H       -0.59819        0.85513        0.27785
    H       -0.59819       -0.85513       -0.27785
     6 
Profile.83 HEAT OF FORMATION =    15.945 KCAL 
    C        0.00000        0.00000        0.00000
    C        1.33084        0.00000        0.00000
    H        1.92904        0.89914        0.00000
    H        1.92904       -0.89914        0.00000
    H       -0.59819        0.86431        0.24784
    H       -0.59819       -0.86431       -0.24784
     6 
Profile.84 HEAT OF FORMATION =    15.456 KCAL 
    C        0.00000        0.00000        0.00000
    C        1.33084        0.00000        0.00000
    H        1.92904        0.89914        0.00000
    H        1.92904       -0.89914        0.00000
    H       -0.59819        0.87243        0.21752
    H       -0.59819       -0.87243       -0.21752
     6 
Profile.85 HEAT OF FORMATION =    15.031 KCAL 
    C        0.00000        0.00000        0.00000
    C        1.33019        0.00000        0.00000
    H        1.92854        0.89907        0.00000
    H        1.92854       -0.89907        0.00000
    H       -0.59835        0.87943        0.18693
    H       -0.59835       -0.87943       -0.18693
     6 
Profile.86 HEAT OF FORMATION =    14.672 KCAL 
    C        0.00000        0.00000        0.00000
    C        1.33019        0.00000        0.00000
    H        1.92854        0.89907        0.00000
    H        1.92854       -0.89907        0.00000
    H       -0.59835        0.88541        0.15612
    H       -0.59835       -0.88541       -0.15612
     6 
Profile.87 HEAT OF FORMATION =    14.378 KCAL 
    C        0.00000        0.00000        0.00000
    C        1.33019        0.00000        0.00000
    H        1.92854        0.89907        0.00000
    H        1.92854       -0.89907        0.00000
    H       -0.59835        0.89032        0.12513
    H       -0.59835       -0.89032       -0.12513
     6 
Profile.88 HEAT OF FORMATION =    14.150 KCAL 
    C        0.00000        0.00000        0.00000
    C        1.33019        0.00000        0.00000
    H        1.92854        0.89907        0.00000
    H        1.92854       -0.89907        0.00000
    H       -0.59835        0.89415        0.09398
    H       -0.59835       -0.89415       -0.09398
     6 
Profile.89 HEAT OF FORMATION =    13.986 KCAL 
    C        0.00000        0.00000        0.00000
    C        1.33019        0.00000        0.00000
    H        1.92854        0.89907        0.00000
    H        1.92854       -0.89907        0.00000
    H       -0.59835        0.89688        0.06272
    H       -0.59835       -0.89688       -0.06272
     6 
Profile.90 HEAT OF FORMATION =    13.888 KCAL 
    C        0.00000        0.00000        0.00000
    C        1.33019        0.00000        0.00000
    H        1.92854        0.89907        0.00000
    H        1.92854       -0.89907        0.00000
    H       -0.59835        0.89852        0.03138
    H       -0.59835       -0.89852       -0.03138
