     6 
Profile.1 HEAT OF FORMATION =    49.795 KCAL 
    C        0.00000        0.00000        0.00000
    C        1.40723        0.00000        0.00000
    H        1.96488        0.91273        0.00000
    H        1.96488       -0.91273        0.00000
    H       -0.55765        0.15849       -0.89886
    H       -0.55765       -0.15849        0.89886
     6 
Profile.2 HEAT OF FORMATION =    49.886 KCAL 
    C        0.00000        0.00000        0.00000
    C        1.40723        0.00000        0.00000
    H        1.96488        0.91273        0.00000
    H        1.96488       -0.91273        0.00000
    H       -0.55765        0.15536       -0.89941
    H       -0.55765       -0.15536        0.89941
     6 
Profile.3 HEAT OF FORMATION =    49.975 KCAL 
    C        0.00000        0.00000        0.00000
    C        1.40723        0.00000        0.00000
    H        1.96488        0.91273        0.00000
    H        1.96488       -0.91273        0.00000
    H       -0.55765        0.15221       -0.89995
    H       -0.55765       -0.15221        0.89995
     6 
Profile.4 HEAT OF FORMATION =    50.063 KCAL 
    C        0.00000        0.00000        0.00000
    C        1.40835        0.00000        0.00000
    H        1.96629        0.91292        0.00000
    H        1.96629       -0.91292        0.00000
    H       -0.55794        0.14910       -0.90066
    H       -0.55794       -0.14910        0.90066
     6 
Profile.5 HEAT OF FORMATION =    50.149 KCAL 
    C        0.00000        0.00000        0.00000
    C        1.40835        0.00000        0.00000
    H        1.96629        0.91292        0.00000
    H        1.96629       -0.91292        0.00000
    H       -0.55794        0.14596       -0.90117
    H       -0.55794       -0.14596        0.90117
     6 
Profile.6 HEAT OF FORMATION =    50.234 KCAL 
    C        0.00000        0.00000        0.00000
    C        1.40835        0.00000        0.00000
    H        1.96629        0.91292        0.00000
    H        1.96629       -0.91292        0.00000
    H       -0.55794        0.14281       -0.90168
    H       -0.55794       -0.14281        0.90168
     6 
Profile.7 HEAT OF FORMATION =    50.316 KCAL 
    C        0.00000        0.00000        0.00000
    C        1.40954        0.00000        0.00000
    H        1.96635        0.91321        0.00000
    H        1.96635       -0.91321        0.00000
    H       -0.55681        0.13971       -0.90246
    H       -0.55681       -0.13971        0.90246
     6 
Profile.8 HEAT OF FORMATION =    50.398 KCAL 
    C        0.00000        0.00000        0.00000
    C        1.40954        0.00000        0.00000
    H        1.96635        0.91321        0.00000
    H        1.96635       -0.91321        0.00000
    H       -0.55681        0.13656       -0.90295
    H       -0.55681       -0.13656        0.90295
     6 
Profile.9 HEAT OF FORMATION =    50.477 KCAL 
    C        0.00000        0.00000        0.00000
    C        1.40954        0.00000        0.00000
    H        1.96635        0.91321        0.00000
    H        1.96635       -0.91321        0.00000
    H       -0.55681        0.13341       -0.90342
    H       -0.55681       -0.13341        0.90342
     6 
Profile.10 HEAT OF FORMATION =    50.556 KCAL 
    C        0.00000        0.00000        0.00000
    C        1.40954        0.00000        0.00000
    H        1.96635        0.91321        0.00000
    H        1.96635       -0.91321        0.00000
    H       -0.55681        0.13025       -0.90388
    H       -0.55681       -0.13025        0.90388
     6 
Profile.11 HEAT OF FORMATION =    50.632 KCAL 
    C        0.00000        0.00000        0.00000
    C        1.41060        0.00000        0.00000
    H        1.96711        0.91295        0.00000
    H        1.96711       -0.91295        0.00000
    H       -0.55652        0.12706       -0.90406
    H       -0.55652       -0.12706        0.90406
     6 
Profile.12 HEAT OF FORMATION =    50.706 KCAL 
    C        0.00000        0.00000        0.00000
    C        1.41060        0.00000        0.00000
    H        1.96711        0.91295        0.00000
    H        1.96711       -0.91295        0.00000
    H       -0.55652        0.12390       -0.90450
    H       -0.55652       -0.12390        0.90450
     6 
Profile.13 HEAT OF FORMATION =    50.780 KCAL 
    C        0.00000        0.00000        0.00000
    C        1.41060        0.00000        0.00000
    H        1.96711        0.91295        0.00000
    H        1.96711       -0.91295        0.00000
    H       -0.55652        0.12074       -0.90493
    H       -0.55652       -0.12074        0.90493
     6 
Profile.14 HEAT OF FORMATION =    50.851 KCAL 
    C        0.00000        0.00000        0.00000
    C        1.41060        0.00000        0.00000
    H        1.96711        0.91295        0.00000
    H        1.96711       -0.91295        0.00000
    H       -0.55652        0.11758       -0.90534
    H       -0.55652       -0.11758        0.90534
     6 
Profile.15 HEAT OF FORMATION =    50.920 KCAL 
    C        0.00000        0.00000        0.00000
    C        1.41181        0.00000        0.00000
    H        1.96785        0.91354        0.00000
    H        1.96785       -0.91354        0.00000
    H       -0.55604        0.11450       -0.90634
    H       -0.55604       -0.11450        0.90634
     6 
Profile.16 HEAT OF FORMATION =    50.988 KCAL 
    C        0.00000        0.00000        0.00000
    C        1.41181        0.00000        0.00000
    H        1.96785        0.91354        0.00000
    H        1.96785       -0.91354        0.00000
    H       -0.55604        0.11133       -0.90673
    H       -0.55604       -0.11133        0.90673
     6 
Profile.17 HEAT OF FORMATION =    51.054 KCAL 
    C        0.00000        0.00000        0.00000
    C        1.41181        0.00000        0.00000
    H        1.96785        0.91354        0.00000
    H        1.96785       -0.91354        0.00000
    H       -0.55604        0.10817       -0.90711
    H       -0.55604       -0.10817        0.90711
     6 
Profile.18 HEAT OF FORMATION =    51.118 KCAL 
    C        0.00000        0.00000        0.00000
    C        1.41296        0.00000        0.00000
    H        1.96814        0.91369        0.00000
    H        1.96814       -0.91369        0.00000
    H       -0.55518        0.10502       -0.90764
    H       -0.55518       -0.10502        0.90764
     6 
Profile.19 HEAT OF FORMATION =    51.181 KCAL 
    C        0.00000        0.00000        0.00000
    C        1.41296        0.00000        0.00000
    H        1.96814        0.91369        0.00000
    H        1.96814       -0.91369        0.00000
    H       -0.55518        0.10185       -0.90800
    H       -0.55518       -0.10185        0.90800
     6 
Profile.20 HEAT OF FORMATION =    51.242 KCAL 
    C        0.00000        0.00000        0.00000
    C        1.41296        0.00000        0.00000
    H        1.96814        0.91369        0.00000
    H        1.96814       -0.91369        0.00000
    H       -0.55518        0.09868       -0.90835
    H       -0.55518       -0.09868        0.90835
     6 
Profile.21 HEAT OF FORMATION =    51.301 KCAL 
    C        0.00000        0.00000        0.00000
    C        1.41296        0.00000        0.00000
    H        1.96814        0.91369        0.00000
    H        1.96814       -0.91369        0.00000
    H       -0.55518        0.09551       -0.90869
    H       -0.55518       -0.09551        0.90869
     6 
Profile.22 HEAT OF FORMATION =    51.359 KCAL 
    C        0.00000        0.00000        0.00000
    C        1.41494        0.00000        0.00000
    H        1.96909        0.91403        0.00000
    H        1.96909       -0.91403        0.00000
    H       -0.55414        0.09237       -0.90935
    H       -0.55414       -0.09237        0.90935
     6 
Profile.23 HEAT OF FORMATION =    51.414 KCAL 
    C        0.00000        0.00000        0.00000
    C        1.41494        0.00000        0.00000
    H        1.96909        0.91403        0.00000
    H        1.96909       -0.91403        0.00000
    H       -0.55414        0.08919       -0.90966
    H       -0.55414       -0.08919        0.90966
     6 
Profile.24 HEAT OF FORMATION =    51.467 KCAL 
    C        0.00000        0.00000        0.00000
    C        1.41494        0.00000        0.00000
    H        1.96909        0.91403        0.00000
    H        1.96909       -0.91403        0.00000
    H       -0.55414        0.08602       -0.90997
    H       -0.55414       -0.08602        0.90997
     6 
Profile.25 HEAT OF FORMATION =    51.518 KCAL 
    C        0.00000        0.00000        0.00000
    C        1.41494        0.00000        0.00000
    H        1.96909        0.91403        0.00000
    H        1.96909       -0.91403        0.00000
    H       -0.55414        0.08284       -0.91026
    H       -0.55414       -0.08284        0.91026
     6 
Profile.26 HEAT OF FORMATION =    51.568 KCAL 
    C        0.00000        0.00000        0.00000
    C        1.41494        0.00000        0.00000
    H        1.96909        0.91403        0.00000
    H        1.96909       -0.91403        0.00000
    H       -0.55414        0.07966       -0.91055
    H       -0.55414       -0.07966        0.91055
     6 
Profile.27 HEAT OF FORMATION =    51.616 KCAL 
    C        0.00000        0.00000        0.00000
    C        1.41494        0.00000        0.00000
    H        1.96909        0.91403        0.00000
    H        1.96909       -0.91403        0.00000
    H       -0.55414        0.07648       -0.91082
    H       -0.55414       -0.07648        0.91082
     6 
Profile.28 HEAT OF FORMATION =    51.662 KCAL 
    C        0.00000        0.00000        0.00000
    C        1.41494        0.00000        0.00000
    H        1.96909        0.91403        0.00000
    H        1.96909       -0.91403        0.00000
    H       -0.55414        0.07330       -0.91108
    H       -0.55414       -0.07330        0.91108
     6 
Profile.29 HEAT OF FORMATION =    51.706 KCAL 
    C        0.00000        0.00000        0.00000
    C        1.41494        0.00000        0.00000
    H        1.96909        0.91403        0.00000
    H        1.96909       -0.91403        0.00000
    H       -0.55414        0.07012       -0.91133
    H       -0.55414       -0.07012        0.91133
     6 
Profile.30 HEAT OF FORMATION =    51.748 KCAL 
    C        0.00000        0.00000        0.00000
    C        1.41494        0.00000        0.00000
    H        1.96909        0.91403        0.00000
    H        1.96909       -0.91403        0.00000
    H       -0.55414        0.06694       -0.91157
    H       -0.55414       -0.06694        0.91157
     6 
Profile.31 HEAT OF FORMATION =    51.789 KCAL 
    C        0.00000        0.00000        0.00000
    C        1.41494        0.00000        0.00000
    H        1.96909        0.91403        0.00000
    H        1.96909       -0.91403        0.00000
    H       -0.55414        0.06376       -0.91180
    H       -0.55414       -0.06376        0.91180
     6 
Profile.32 HEAT OF FORMATION =    51.827 KCAL 
    C        0.00000        0.00000        0.00000
    C        1.41589        0.00000        0.00000
    H        1.96977        0.91379        0.00000
    H        1.96977       -0.91379        0.00000
    H       -0.55388        0.06056       -0.91178
    H       -0.55388       -0.06056        0.91178
     6 
Profile.33 HEAT OF FORMATION =    51.864 KCAL 
    C        0.00000        0.00000        0.00000
    C        1.41589        0.00000        0.00000
    H        1.96977        0.91379        0.00000
    H        1.96977       -0.91379        0.00000
    H       -0.55388        0.05738       -0.91199
    H       -0.55388       -0.05738        0.91199
     6 
Profile.34 HEAT OF FORMATION =    51.898 KCAL 
    C        0.00000        0.00000        0.00000
    C        1.41589        0.00000        0.00000
    H        1.96977        0.91379        0.00000
    H        1.96977       -0.91379        0.00000
    H       -0.55388        0.05419       -0.91218
    H       -0.55388       -0.05419        0.91218
     6 
Profile.35 HEAT OF FORMATION =    51.931 KCAL 
    C        0.00000        0.00000        0.00000
    C        1.41589        0.00000        0.00000
    H        1.96977        0.91379        0.00000
    H        1.96977       -0.91379        0.00000
    H       -0.55388        0.05101       -0.91237
    H       -0.55388       -0.05101        0.91237
     6 
Profile.36 HEAT OF FORMATION =    51.962 KCAL 
    C        0.00000        0.00000        0.00000
    C        1.41589        0.00000        0.00000
    H        1.96977        0.91379        0.00000
    H        1.96977       -0.91379        0.00000
    H       -0.55388        0.04782       -0.91254
    H       -0.55388       -0.04782        0.91254
     6 
Profile.37 HEAT OF FORMATION =    51.990 KCAL 
    C        0.00000        0.00000        0.00000
    C        1.41589        0.00000        0.00000
    H        1.96977        0.91379        0.00000
    H        1.96977       -0.91379        0.00000
    H       -0.55388        0.04464       -0.91270
    H       -0.55388       -0.04464        0.91270
     6 
Profile.38 HEAT OF FORMATION =    52.017 KCAL 
    C        0.00000        0.00000        0.00000
    C        1.41589        0.00000        0.00000
    H        1.96977        0.91379        0.00000
    H        1.96977       -0.91379        0.00000
    H       -0.55388        0.04145       -0.91285
    H       -0.55388       -0.04145        0.91285
     6 
Profile.39 HEAT OF FORMATION =    52.042 KCAL 
    C        0.00000        0.00000        0.00000
    C        1.41687        0.00000        0.00000
    H        1.97034        0.91431        0.00000
    H        1.97034       -0.91431        0.00000
    H       -0.55347        0.03829       -0.91351
    H       -0.55347       -0.03829        0.91351
     6 
Profile.40 HEAT OF FORMATION =    52.065 KCAL 
    C        0.00000        0.00000        0.00000
    C        1.41687        0.00000        0.00000
    H        1.97034        0.91431        0.00000
    H        1.97034       -0.91431        0.00000
    H       -0.55347        0.03510       -0.91364
    H       -0.55347       -0.03510        0.91364
     6 
Profile.41 HEAT OF FORMATION =    52.085 KCAL 
    C        0.00000        0.00000        0.00000
    C        1.41687        0.00000        0.00000
    H        1.97034        0.91431        0.00000
    H        1.97034       -0.91431        0.00000
    H       -0.55347        0.03191       -0.91375
    H       -0.55347       -0.03191        0.91375
     6 
Profile.42 HEAT OF FORMATION =    52.104 KCAL 
    C        0.00000        0.00000        0.00000
    C        1.41687        0.00000        0.00000
    H        1.97034        0.91431        0.00000
    H        1.97034       -0.91431        0.00000
    H       -0.55347        0.02872       -0.91386
    H       -0.55347       -0.02872        0.91386
     6 
Profile.43 HEAT OF FORMATION =    52.121 KCAL 
    C        0.00000        0.00000        0.00000
    C        1.41687        0.00000        0.00000
    H        1.97034        0.91431        0.00000
    H        1.97034       -0.91431        0.00000
    H       -0.55347        0.02553       -0.91395
    H       -0.55347       -0.02553        0.91395
     6 
Profile.44 HEAT OF FORMATION =    52.136 KCAL 
    C        0.00000        0.00000        0.00000
    C        1.41687        0.00000        0.00000
    H        1.97034        0.91431        0.00000
    H        1.97034       -0.91431        0.00000
    H       -0.55347        0.02234       -0.91404
    H       -0.55347       -0.02234        0.91404
     6 
Profile.45 HEAT OF FORMATION =    52.149 KCAL 
    C        0.00000        0.00000        0.00000
    C        1.41687        0.00000        0.00000
    H        1.97034        0.91431        0.00000
    H        1.97034       -0.91431        0.00000
    H       -0.55347        0.01915       -0.91411
    H       -0.55347       -0.01915        0.91411
     6 
Profile.46 HEAT OF FORMATION =    52.160 KCAL 
    C        0.00000        0.00000        0.00000
    C        1.41687        0.00000        0.00000
    H        1.97034        0.91431        0.00000
    H        1.97034       -0.91431        0.00000
    H       -0.55347        0.01596       -0.91417
    H       -0.55347       -0.01596        0.91417
     6 
Profile.47 HEAT OF FORMATION =    52.169 KCAL 
    C        0.00000        0.00000        0.00000
    C        1.41687        0.00000        0.00000
    H        1.97034        0.91431        0.00000
    H        1.97034       -0.91431        0.00000
    H       -0.55347        0.01277       -0.91422
    H       -0.55347       -0.01277        0.91422
     6 
Profile.48 HEAT OF FORMATION =    52.176 KCAL 
    C        0.00000        0.00000        0.00000
    C        1.41687        0.00000        0.00000
    H        1.97034        0.91431        0.00000
    H        1.97034       -0.91431        0.00000
    H       -0.55347        0.00957       -0.91426
    H       -0.55347       -0.00957        0.91426
     6 
Profile.49 HEAT OF FORMATION =    52.181 KCAL 
    C        0.00000        0.00000        0.00000
    C        1.41687        0.00000        0.00000
    H        1.97034        0.91431        0.00000
    H        1.97034       -0.91431        0.00000
    H       -0.55347        0.00638       -0.91429
    H       -0.55347       -0.00638        0.91429
     6 
Profile.50 HEAT OF FORMATION =    52.184 KCAL 
    C        0.00000        0.00000        0.00000
    C        1.41687        0.00000        0.00000
    H        1.97034        0.91431        0.00000
    H        1.97034       -0.91431        0.00000
    H       -0.55347        0.00319       -0.91430
    H       -0.55347       -0.00319        0.91430
     6 
Profile.51 HEAT OF FORMATION =    52.185 KCAL 
    C        0.00000        0.00000        0.00000
    C        1.41687        0.00000        0.00000
    H        1.97034        0.91431        0.00000
    H        1.97034       -0.91431        0.00000
    H       -0.55347        0.00000       -0.91431
    H       -0.55347       -0.00000        0.91431
     6 
Profile.52 HEAT OF FORMATION =    52.184 KCAL 
    C        0.00000        0.00000        0.00000
    C        1.41687        0.00000        0.00000
    H        1.97034        0.91431        0.00000
    H        1.97034       -0.91431        0.00000
    H       -0.55347       -0.00319       -0.91430
    H       -0.55347        0.00319        0.91430
     6 
Profile.53 HEAT OF FORMATION =    52.181 KCAL 
    C        0.00000        0.00000        0.00000
    C        1.41687        0.00000        0.00000
    H        1.97034        0.91431        0.00000
    H        1.97034       -0.91431        0.00000
    H       -0.55347       -0.00638       -0.91429
    H       -0.55347        0.00638        0.91429
     6 
Profile.54 HEAT OF FORMATION =    52.176 KCAL 
    C        0.00000        0.00000        0.00000
    C        1.41687        0.00000        0.00000
    H        1.97034        0.91431        0.00000
    H        1.97034       -0.91431        0.00000
    H       -0.55347       -0.00957       -0.91426
    H       -0.55347        0.00957        0.91426
     6 
Profile.55 HEAT OF FORMATION =    52.169 KCAL 
    C        0.00000        0.00000        0.00000
    C        1.41687        0.00000        0.00000
    H        1.97034        0.91431        0.00000
    H        1.97034       -0.91431        0.00000
    H       -0.55347       -0.01277       -0.91422
    H       -0.55347        0.01277        0.91422
     6 
Profile.56 HEAT OF FORMATION =    52.160 KCAL 
    C        0.00000        0.00000        0.00000
    C        1.41687        0.00000        0.00000
    H        1.97034        0.91431        0.00000
    H        1.97034       -0.91431        0.00000
    H       -0.55347       -0.01596       -0.91417
    H       -0.55347        0.01596        0.91417
     6 
Profile.57 HEAT OF FORMATION =    52.149 KCAL 
    C        0.00000        0.00000        0.00000
    C        1.41687        0.00000        0.00000
    H        1.97034        0.91431        0.00000
    H        1.97034       -0.91431        0.00000
    H       -0.55347       -0.01915       -0.91411
    H       -0.55347        0.01915        0.91411
     6 
Profile.58 HEAT OF FORMATION =    52.136 KCAL 
    C        0.00000        0.00000        0.00000
    C        1.41687        0.00000        0.00000
    H        1.97034        0.91431        0.00000
    H        1.97034       -0.91431        0.00000
    H       -0.55347       -0.02234       -0.91404
    H       -0.55347        0.02234        0.91404
     6 
Profile.59 HEAT OF FORMATION =    52.121 KCAL 
    C        0.00000        0.00000        0.00000
    C        1.41687        0.00000        0.00000
    H        1.97034        0.91431        0.00000
    H        1.97034       -0.91431        0.00000
    H       -0.55347       -0.02553       -0.91395
    H       -0.55347        0.02553        0.91395
     6 
Profile.60 HEAT OF FORMATION =    52.104 KCAL 
    C        0.00000        0.00000        0.00000
    C        1.41687        0.00000        0.00000
    H        1.97034        0.91431        0.00000
    H        1.97034       -0.91431        0.00000
    H       -0.55347       -0.02872       -0.91386
    H       -0.55347        0.02872        0.91386
     6 
Profile.61 HEAT OF FORMATION =    52.085 KCAL 
    C        0.00000        0.00000        0.00000
    C        1.41687        0.00000        0.00000
    H        1.97034        0.91431        0.00000
    H        1.97034       -0.91431        0.00000
    H       -0.55347       -0.03191       -0.91375
    H       -0.55347        0.03191        0.91375
     6 
Profile.62 HEAT OF FORMATION =    52.065 KCAL 
    C        0.00000        0.00000        0.00000
    C        1.41687        0.00000        0.00000
    H        1.97034        0.91431        0.00000
    H        1.97034       -0.91431        0.00000
    H       -0.55347       -0.03510       -0.91364
    H       -0.55347        0.03510        0.91364
     6 
Profile.63 HEAT OF FORMATION =    52.042 KCAL 
    C        0.00000        0.00000        0.00000
    C        1.41687        0.00000        0.00000
    H        1.97034        0.91431        0.00000
    H        1.97034       -0.91431        0.00000
    H       -0.55347       -0.03829       -0.91351
    H       -0.55347        0.03829        0.91351
     6 
Profile.64 HEAT OF FORMATION =    52.017 KCAL 
    C        0.00000        0.00000        0.00000
    C        1.41687        0.00000        0.00000
    H        1.97034        0.91431        0.00000
    H        1.97034       -0.91431        0.00000
    H       -0.55347       -0.04148       -0.91337
    H       -0.55347        0.04148        0.91337
     6 
Profile.65 HEAT OF FORMATION =    51.990 KCAL 
    C        0.00000        0.00000        0.00000
    C        1.41687        0.00000        0.00000
    H        1.97034        0.91431        0.00000
    H        1.97034       -0.91431        0.00000
    H       -0.55347       -0.04466       -0.91322
    H       -0.55347        0.04466        0.91322
     6 
Profile.66 HEAT OF FORMATION =    51.961 KCAL 
    C        0.00000        0.00000        0.00000
    C        1.41687        0.00000        0.00000
    H        1.97034        0.91431        0.00000
    H        1.97034       -0.91431        0.00000
    H       -0.55347       -0.04785       -0.91306
    H       -0.55347        0.04785        0.91306
     6 
Profile.67 HEAT OF FORMATION =    51.931 KCAL 
    C        0.00000        0.00000        0.00000
    C        1.41687        0.00000        0.00000
    H        1.97034        0.91431        0.00000
    H        1.97034       -0.91431        0.00000
    H       -0.55347       -0.05104       -0.91288
    H       -0.55347        0.05104        0.91288
     6 
Profile.68 HEAT OF FORMATION =    51.898 KCAL 
    C        0.00000        0.00000        0.00000
    C        1.41687        0.00000        0.00000
    H        1.97034        0.91431        0.00000
    H        1.97034       -0.91431        0.00000
    H       -0.55347       -0.05422       -0.91270
    H       -0.55347        0.05422        0.91270
     6 
Profile.69 HEAT OF FORMATION =    51.863 KCAL 
    C        0.00000        0.00000        0.00000
    C        1.41600        0.00000        0.00000
    H        1.96951        0.91420        0.00000
    H        1.96951       -0.91420        0.00000
    H       -0.55352       -0.05740       -0.91239
    H       -0.55352        0.05740        0.91239
     6 
Profile.70 HEAT OF FORMATION =    51.827 KCAL 
    C        0.00000        0.00000        0.00000
    C        1.41600        0.00000        0.00000
    H        1.96951        0.91420        0.00000
    H        1.96951       -0.91420        0.00000
    H       -0.55352       -0.06059       -0.91219
    H       -0.55352        0.06059        0.91219
     6 
Profile.71 HEAT OF FORMATION =    51.789 KCAL 
    C        0.00000        0.00000        0.00000
    C        1.41600        0.00000        0.00000
    H        1.96951        0.91420        0.00000
    H        1.96951       -0.91420        0.00000
    H       -0.55352       -0.06377       -0.91197
    H       -0.55352        0.06377        0.91197
     6 
Profile.72 HEAT OF FORMATION =    51.748 KCAL 
    C        0.00000        0.00000        0.00000
    C        1.41600        0.00000        0.00000
    H        1.96951        0.91420        0.00000
    H        1.96951       -0.91420        0.00000
    H       -0.55352       -0.06695       -0.91174
    H       -0.55352        0.06695        0.91174
     6 
Profile.73 HEAT OF FORMATION =    51.706 KCAL 
    C        0.00000        0.00000        0.00000
    C        1.41600        0.00000        0.00000
    H        1.96951        0.91420        0.00000
    H        1.96951       -0.91420        0.00000
    H       -0.55352       -0.07014       -0.91150
    H       -0.55352        0.07014        0.91150
     6 
Profile.74 HEAT OF FORMATION =    51.662 KCAL 
    C        0.00000        0.00000        0.00000
    C        1.41600        0.00000        0.00000
    H        1.96951        0.91420        0.00000
    H        1.96951       -0.91420        0.00000
    H       -0.55352       -0.07332       -0.91125
    H       -0.55352        0.07332        0.91125
     6 
Profile.75 HEAT OF FORMATION =    51.616 KCAL 
    C        0.00000        0.00000        0.00000
    C        1.41498        0.00000        0.00000
    H        1.96874        0.91390        0.00000
    H        1.96874       -0.91390        0.00000
    H       -0.55377       -0.07647       -0.91070
    H       -0.55377        0.07647        0.91070
     6 
Profile.76 HEAT OF FORMATION =    51.568 KCAL 
    C        0.00000        0.00000        0.00000
    C        1.41498        0.00000        0.00000
    H        1.96874        0.91390        0.00000
    H        1.96874       -0.91390        0.00000
    H       -0.55377       -0.07965       -0.91043
    H       -0.55377        0.07965        0.91043
     6 
Profile.77 HEAT OF FORMATION =    51.518 KCAL 
    C        0.00000        0.00000        0.00000
    C        1.41498        0.00000        0.00000
    H        1.96874        0.91390        0.00000
    H        1.96874       -0.91390        0.00000
    H       -0.55377       -0.08283       -0.91014
    H       -0.55377        0.08283        0.91014
     6 
Profile.78 HEAT OF FORMATION =    51.467 KCAL 
    C        0.00000        0.00000        0.00000
    C        1.41498        0.00000        0.00000
    H        1.96874        0.91390        0.00000
    H        1.96874       -0.91390        0.00000
    H       -0.55377       -0.08601       -0.90985
    H       -0.55377        0.08601        0.90985
     6 
Profile.79 HEAT OF FORMATION =    51.414 KCAL 
    C        0.00000        0.00000        0.00000
    C        1.41498        0.00000        0.00000
    H        1.96874        0.91390        0.00000
    H        1.96874       -0.91390        0.00000
    H       -0.55377       -0.08918       -0.90954
    H       -0.55377        0.08918        0.90954
     6 
Profile.80 HEAT OF FORMATION =    51.359 KCAL 
    C        0.00000        0.00000        0.00000
    C        1.41498        0.00000        0.00000
    H        1.96874        0.91390        0.00000
    H        1.96874       -0.91390        0.00000
    H       -0.55377       -0.09236       -0.90923
    H       -0.55377        0.09236        0.90923
     6 
Profile.81 HEAT OF FORMATION =    51.301 KCAL 
    C        0.00000        0.00000        0.00000
    C        1.41366        0.00000        0.00000
    H        1.96822        0.91404        0.00000
    H        1.96822       -0.91404        0.00000
    H       -0.55457       -0.09554       -0.90904
    H       -0.55457        0.09554        0.90904
     6 
Profile.82 HEAT OF FORMATION =    51.242 KCAL 
    C        0.00000        0.00000        0.00000
    C        1.41366        0.00000        0.00000
    H        1.96822        0.91404        0.00000
    H        1.96822       -0.91404        0.00000
    H       -0.55457       -0.09872       -0.90870
    H       -0.55457        0.09872        0.90870
     6 
Profile.83 HEAT OF FORMATION =    51.181 KCAL 
    C        0.00000        0.00000        0.00000
    C        1.41366        0.00000        0.00000
    H        1.96822        0.91404        0.00000
    H        1.96822       -0.91404        0.00000
    H       -0.55457       -0.10189       -0.90835
    H       -0.55457        0.10189        0.90835
     6 
Profile.84 HEAT OF FORMATION =    51.119 KCAL 
    C        0.00000        0.00000        0.00000
    C        1.41275        0.00000        0.00000
    H        1.96760        0.91335        0.00000
    H        1.96760       -0.91335        0.00000
    H       -0.55485       -0.10498       -0.90729
    H       -0.55485        0.10498        0.90729
     6 
Profile.85 HEAT OF FORMATION =    51.054 KCAL 
    C        0.00000        0.00000        0.00000
    C        1.41275        0.00000        0.00000
    H        1.96760        0.91335        0.00000
    H        1.96760       -0.91335        0.00000
    H       -0.55485       -0.10814       -0.90692
    H       -0.55485        0.10814        0.90692
     6 
Profile.86 HEAT OF FORMATION =    50.988 KCAL 
    C        0.00000        0.00000        0.00000
    C        1.41209        0.00000        0.00000
    H        1.96755        0.91349        0.00000
    H        1.96755       -0.91349        0.00000
    H       -0.55546       -0.11133       -0.90668
    H       -0.55546        0.11133        0.90668
     6 
Profile.87 HEAT OF FORMATION =    50.920 KCAL 
    C        0.00000        0.00000        0.00000
    C        1.41209        0.00000        0.00000
    H        1.96755        0.91349        0.00000
    H        1.96755       -0.91349        0.00000
    H       -0.55546       -0.11449       -0.90629
    H       -0.55546        0.11449        0.90629
     6 
Profile.88 HEAT OF FORMATION =    50.851 KCAL 
    C        0.00000        0.00000        0.00000
    C        1.41209        0.00000        0.00000
    H        1.96755        0.91349        0.00000
    H        1.96755       -0.91349        0.00000
    H       -0.55546       -0.11765       -0.90589
    H       -0.55546        0.11765        0.90589
     6 
Profile.89 HEAT OF FORMATION =    50.780 KCAL 
    C        0.00000        0.00000        0.00000
    C        1.41209        0.00000        0.00000
    H        1.96755        0.91349        0.00000
    H        1.96755       -0.91349        0.00000
    H       -0.55546       -0.12082       -0.90547
    H       -0.55546        0.12082        0.90547
     6 
Profile.90 HEAT OF FORMATION =    50.706 KCAL 
    C        0.00000        0.00000        0.00000
    C        1.41096        0.00000        0.00000
    H        1.96670        0.91343        0.00000
    H        1.96670       -0.91343        0.00000
    H       -0.55574       -0.12397       -0.90498
    H       -0.55574        0.12397        0.90498
     6 
Profile.91 HEAT OF FORMATION =    50.632 KCAL 
    C        0.00000        0.00000        0.00000
    C        1.41096        0.00000        0.00000
    H        1.96670        0.91343        0.00000
    H        1.96670       -0.91343        0.00000
    H       -0.55574       -0.12712       -0.90454
    H       -0.55574        0.12712        0.90454
     6 
Profile.92 HEAT OF FORMATION =    50.556 KCAL 
    C        0.00000        0.00000        0.00000
    C        1.41096        0.00000        0.00000
    H        1.96670        0.91343        0.00000
    H        1.96670       -0.91343        0.00000
    H       -0.55574       -0.13028       -0.90409
    H       -0.55574        0.13028        0.90409
     6 
Profile.93 HEAT OF FORMATION =    50.478 KCAL 
    C        0.00000        0.00000        0.00000
    C        1.41096        0.00000        0.00000
    H        1.96670        0.91343        0.00000
    H        1.96670       -0.91343        0.00000
    H       -0.55574       -0.13344       -0.90363
    H       -0.55574        0.13344        0.90363
     6 
Profile.94 HEAT OF FORMATION =    50.398 KCAL 
    C        0.00000        0.00000        0.00000
    C        1.40974        0.00000        0.00000
    H        1.96619        0.91326        0.00000
    H        1.96619       -0.91326        0.00000
    H       -0.55645       -0.13656       -0.90299
    H       -0.55645        0.13656        0.90299
     6 
Profile.95 HEAT OF FORMATION =    50.316 KCAL 
    C        0.00000        0.00000        0.00000
    C        1.40974        0.00000        0.00000
    H        1.96619        0.91326        0.00000
    H        1.96619       -0.91326        0.00000
    H       -0.55645       -0.13972       -0.90251
    H       -0.55645        0.13972        0.90251
     6 
Profile.96 HEAT OF FORMATION =    50.234 KCAL 
    C        0.00000        0.00000        0.00000
    C        1.40974        0.00000        0.00000
    H        1.96619        0.91326        0.00000
    H        1.96619       -0.91326        0.00000
    H       -0.55645       -0.14287       -0.90202
    H       -0.55645        0.14287        0.90202
     6 
Profile.97 HEAT OF FORMATION =    50.149 KCAL 
    C        0.00000        0.00000        0.00000
    C        1.40866        0.00000        0.00000
    H        1.96561        0.91300        0.00000
    H        1.96561       -0.91300        0.00000
    H       -0.55695       -0.14597       -0.90125
    H       -0.55695        0.14597        0.90125
     6 
Profile.98 HEAT OF FORMATION =    50.063 KCAL 
    C        0.00000        0.00000        0.00000
    C        1.40866        0.00000        0.00000
    H        1.96561        0.91300        0.00000
    H        1.96561       -0.91300        0.00000
    H       -0.55695       -0.14912       -0.90074
    H       -0.55695        0.14912        0.90074
     6 
Profile.99 HEAT OF FORMATION =    49.976 KCAL 
    C        0.00000        0.00000        0.00000
    C        1.40866        0.00000        0.00000
    H        1.96561        0.91300        0.00000
    H        1.96561       -0.91300        0.00000
    H       -0.55695       -0.15226       -0.90021
    H       -0.55695        0.15226        0.90021
     6 
Profile.100 HEAT OF FORMATION =    49.886 KCAL 
    C        0.00000        0.00000        0.00000
    C        1.40762        0.00000        0.00000
    H        1.96517        0.91298        0.00000
    H        1.96517       -0.91298        0.00000
    H       -0.55755       -0.15540       -0.89965
    H       -0.55755        0.15540        0.89965
