     6 
Profile.1 HEAT OF FORMATION =    51.803 KCAL 
    C        0.00000        0.00000        0.00000
    C        1.41631        0.00000        0.00000
    H        1.96935        0.91379        0.00000
    H        1.96935       -0.91379        0.00000
    H       -0.55304        0.15868       -0.89991
    H       -0.55304       -0.15868        0.89991
     6 
Profile.2 HEAT OF FORMATION =    51.787 KCAL 
    C        0.00000        0.00000        0.00000
    C        1.41631        0.00000        0.00000
    H        1.96935        0.91379        0.00000
    H        1.96935       -0.91379        0.00000
    H       -0.55304        0.15554       -0.90046
    H       -0.55304       -0.15554        0.90046
     6 
Profile.3 HEAT OF FORMATION =    51.772 KCAL 
    C        0.00000        0.00000        0.00000
    C        1.41631        0.00000        0.00000
    H        1.96935        0.91379        0.00000
    H        1.96935       -0.91379        0.00000
    H       -0.55304        0.15239       -0.90100
    H       -0.55304       -0.15239        0.90100
     6 
Profile.4 HEAT OF FORMATION =    51.756 KCAL 
    C        0.00000        0.00000        0.00000
    C        1.41631        0.00000        0.00000
    H        1.96935        0.91379        0.00000
    H        1.96935       -0.91379        0.00000
    H       -0.55304        0.14925       -0.90152
    H       -0.55304       -0.14925        0.90152
     6 
Profile.5 HEAT OF FORMATION =    51.741 KCAL 
    C        0.00000        0.00000        0.00000
    C        1.41631        0.00000        0.00000
    H        1.96935        0.91379        0.00000
    H        1.96935       -0.91379        0.00000
    H       -0.55304        0.14610       -0.90204
    H       -0.55304       -0.14610        0.90204
     6 
Profile.6 HEAT OF FORMATION =    51.727 KCAL 
    C        0.00000        0.00000        0.00000
    C        1.41631        0.00000        0.00000
    H        1.96935        0.91379        0.00000
    H        1.96935       -0.91379        0.00000
    H       -0.55304        0.14295       -0.90254
    H       -0.55304       -0.14295        0.90254
     6 
Profile.7 HEAT OF FORMATION =    51.712 KCAL 
    C        0.00000        0.00000        0.00000
    C        1.41631        0.00000        0.00000
    H        1.96935        0.91379        0.00000
    H        1.96935       -0.91379        0.00000
    H       -0.55304        0.13980       -0.90304
    H       -0.55304       -0.13980        0.90304
     6 
Profile.8 HEAT OF FORMATION =    51.698 KCAL 
    C        0.00000        0.00000        0.00000
    C        1.41631        0.00000        0.00000
    H        1.96935        0.91379        0.00000
    H        1.96935       -0.91379        0.00000
    H       -0.55304        0.13664       -0.90352
    H       -0.55304       -0.13664        0.90352
     6 
Profile.9 HEAT OF FORMATION =    51.684 KCAL 
    C        0.00000        0.00000        0.00000
    C        1.41631        0.00000        0.00000
    H        1.96935        0.91379        0.00000
    H        1.96935       -0.91379        0.00000
    H       -0.55304        0.13349       -0.90399
    H       -0.55304       -0.13349        0.90399
     6 
Profile.10 HEAT OF FORMATION =    51.671 KCAL 
    C        0.00000        0.00000        0.00000
    C        1.41631        0.00000        0.00000
    H        1.96935        0.91379        0.00000
    H        1.96935       -0.91379        0.00000
    H       -0.55304        0.13033       -0.90445
    H       -0.55304       -0.13033        0.90445
     6 
Profile.11 HEAT OF FORMATION =    51.658 KCAL 
    C        0.00000        0.00000        0.00000
    C        1.41631        0.00000        0.00000
    H        1.96935        0.91379        0.00000
    H        1.96935       -0.91379        0.00000
    H       -0.55304        0.12718       -0.90490
    H       -0.55304       -0.12718        0.90490
     6 
Profile.12 HEAT OF FORMATION =    51.645 KCAL 
    C        0.00000        0.00000        0.00000
    C        1.41631        0.00000        0.00000
    H        1.96935        0.91379        0.00000
    H        1.96935       -0.91379        0.00000
    H       -0.55304        0.12402       -0.90534
    H       -0.55304       -0.12402        0.90534
     6 
Profile.13 HEAT OF FORMATION =    51.632 KCAL 
    C        0.00000        0.00000        0.00000
    C        1.41631        0.00000        0.00000
    H        1.96935        0.91379        0.00000
    H        1.96935       -0.91379        0.00000
    H       -0.55304        0.12085       -0.90576
    H       -0.55304       -0.12085        0.90576
     6 
Profile.14 HEAT OF FORMATION =    51.620 KCAL 
    C        0.00000        0.00000        0.00000
    C        1.41631        0.00000        0.00000
    H        1.96935        0.91379        0.00000
    H        1.96935       -0.91379        0.00000
    H       -0.55304        0.11769       -0.90618
    H       -0.55304       -0.11769        0.90618
     6 
Profile.15 HEAT OF FORMATION =    51.608 KCAL 
    C        0.00000        0.00000        0.00000
    C        1.41631        0.00000        0.00000
    H        1.96935        0.91379        0.00000
    H        1.96935       -0.91379        0.00000
    H       -0.55304        0.11453       -0.90659
    H       -0.55304       -0.11453        0.90659
     6 
Profile.16 HEAT OF FORMATION =    51.597 KCAL 
    C        0.00000        0.00000        0.00000
    C        1.41631        0.00000        0.00000
    H        1.96935        0.91379        0.00000
    H        1.96935       -0.91379        0.00000
    H       -0.55304        0.11136       -0.90698
    H       -0.55304       -0.11136        0.90698
     6 
Profile.17 HEAT OF FORMATION =    51.586 KCAL 
    C        0.00000        0.00000        0.00000
    C        1.41631        0.00000        0.00000
    H        1.96935        0.91379        0.00000
    H        1.96935       -0.91379        0.00000
    H       -0.55304        0.10820       -0.90736
    H       -0.55304       -0.10820        0.90736
     6 
Profile.18 HEAT OF FORMATION =    51.575 KCAL 
    C        0.00000        0.00000        0.00000
    C        1.41631        0.00000        0.00000
    H        1.96935        0.91379        0.00000
    H        1.96935       -0.91379        0.00000
    H       -0.55304        0.10503       -0.90774
    H       -0.55304       -0.10503        0.90774
     6 
Profile.19 HEAT OF FORMATION =    51.564 KCAL 
    C        0.00000        0.00000        0.00000
    C        1.41631        0.00000        0.00000
    H        1.96935        0.91379        0.00000
    H        1.96935       -0.91379        0.00000
    H       -0.55304        0.10186       -0.90810
    H       -0.55304       -0.10186        0.90810
     6 
Profile.20 HEAT OF FORMATION =    51.554 KCAL 
    C        0.00000        0.00000        0.00000
    C        1.41631        0.00000        0.00000
    H        1.96935        0.91379        0.00000
    H        1.96935       -0.91379        0.00000
    H       -0.55304        0.09869       -0.90845
    H       -0.55304       -0.09869        0.90845
     6 
Profile.21 HEAT OF FORMATION =    51.544 KCAL 
    C        0.00000        0.00000        0.00000
    C        1.41631        0.00000        0.00000
    H        1.96935        0.91379        0.00000
    H        1.96935       -0.91379        0.00000
    H       -0.55304        0.09552       -0.90879
    H       -0.55304       -0.09552        0.90879
     6 
Profile.22 HEAT OF FORMATION =    51.534 KCAL 
    C        0.00000        0.00000        0.00000
    C        1.41631        0.00000        0.00000
    H        1.96935        0.91379        0.00000
    H        1.96935       -0.91379        0.00000
    H       -0.55304        0.09234       -0.90911
    H       -0.55304       -0.09234        0.90911
     6 
Profile.23 HEAT OF FORMATION =    51.525 KCAL 
    C        0.00000        0.00000        0.00000
    C        1.41631        0.00000        0.00000
    H        1.96935        0.91379        0.00000
    H        1.96935       -0.91379        0.00000
    H       -0.55304        0.08917       -0.90943
    H       -0.55304       -0.08917        0.90943
     6 
Profile.24 HEAT OF FORMATION =    51.516 KCAL 
    C        0.00000        0.00000        0.00000
    C        1.41631        0.00000        0.00000
    H        1.96935        0.91379        0.00000
    H        1.96935       -0.91379        0.00000
    H       -0.55304        0.08600       -0.90974
    H       -0.55304       -0.08600        0.90974
     6 
Profile.25 HEAT OF FORMATION =    51.508 KCAL 
    C        0.00000        0.00000        0.00000
    C        1.41631        0.00000        0.00000
    H        1.96935        0.91379        0.00000
    H        1.96935       -0.91379        0.00000
    H       -0.55304        0.08282       -0.91003
    H       -0.55304       -0.08282        0.91003
     6 
Profile.26 HEAT OF FORMATION =    51.499 KCAL 
    C        0.00000        0.00000        0.00000
    C        1.41536        0.00000        0.00000
    H        1.96869        0.91401        0.00000
    H        1.96869       -0.91401        0.00000
    H       -0.55333        0.07966       -0.91053
    H       -0.55333       -0.07966        0.91053
     6 
Profile.27 HEAT OF FORMATION =    51.491 KCAL 
    C        0.00000        0.00000        0.00000
    C        1.41536        0.00000        0.00000
    H        1.96869        0.91401        0.00000
    H        1.96869       -0.91401        0.00000
    H       -0.55333        0.07648       -0.91081
    H       -0.55333       -0.07648        0.91081
     6 
Profile.28 HEAT OF FORMATION =    51.483 KCAL 
    C        0.00000        0.00000        0.00000
    C        1.41536        0.00000        0.00000
    H        1.96869        0.91401        0.00000
    H        1.96869       -0.91401        0.00000
    H       -0.55333        0.07330       -0.91107
    H       -0.55333       -0.07330        0.91107
     6 
Profile.29 HEAT OF FORMATION =    51.476 KCAL 
    C        0.00000        0.00000        0.00000
    C        1.41536        0.00000        0.00000
    H        1.96869        0.91401        0.00000
    H        1.96869       -0.91401        0.00000
    H       -0.55333        0.07012       -0.91132
    H       -0.55333       -0.07012        0.91132
     6 
Profile.30 HEAT OF FORMATION =    51.469 KCAL 
    C        0.00000        0.00000        0.00000
    C        1.41536        0.00000        0.00000
    H        1.96869        0.91401        0.00000
    H        1.96869       -0.91401        0.00000
    H       -0.55333        0.06694       -0.91156
    H       -0.55333       -0.06694        0.91156
     6 
Profile.31 HEAT OF FORMATION =    51.462 KCAL 
    C        0.00000        0.00000        0.00000
    C        1.41536        0.00000        0.00000
    H        1.96869        0.91401        0.00000
    H        1.96869       -0.91401        0.00000
    H       -0.55333        0.06376       -0.91179
    H       -0.55333       -0.06376        0.91179
     6 
Profile.32 HEAT OF FORMATION =    51.456 KCAL 
    C        0.00000        0.00000        0.00000
    C        1.41536        0.00000        0.00000
    H        1.96869        0.91401        0.00000
    H        1.96869       -0.91401        0.00000
    H       -0.55333        0.06058       -0.91200
    H       -0.55333       -0.06058        0.91200
     6 
Profile.33 HEAT OF FORMATION =    51.450 KCAL 
    C        0.00000        0.00000        0.00000
    C        1.41536        0.00000        0.00000
    H        1.96869        0.91401        0.00000
    H        1.96869       -0.91401        0.00000
    H       -0.55333        0.05739       -0.91221
    H       -0.55333       -0.05739        0.91221
     6 
Profile.34 HEAT OF FORMATION =    51.444 KCAL 
    C        0.00000        0.00000        0.00000
    C        1.41536        0.00000        0.00000
    H        1.96869        0.91401        0.00000
    H        1.96869       -0.91401        0.00000
    H       -0.55333        0.05421       -0.91240
    H       -0.55333       -0.05421        0.91240
     6 
Profile.35 HEAT OF FORMATION =    51.439 KCAL 
    C        0.00000        0.00000        0.00000
    C        1.41536        0.00000        0.00000
    H        1.96869        0.91401        0.00000
    H        1.96869       -0.91401        0.00000
    H       -0.55333        0.05102       -0.91259
    H       -0.55333       -0.05102        0.91259
     6 
Profile.36 HEAT OF FORMATION =    51.434 KCAL 
    C        0.00000        0.00000        0.00000
    C        1.41536        0.00000        0.00000
    H        1.96869        0.91401        0.00000
    H        1.96869       -0.91401        0.00000
    H       -0.55333        0.04784       -0.91276
    H       -0.55333       -0.04784        0.91276
     6 
Profile.37 HEAT OF FORMATION =    51.429 KCAL 
    C        0.00000        0.00000        0.00000
    C        1.41536        0.00000        0.00000
    H        1.96869        0.91401        0.00000
    H        1.96869       -0.91401        0.00000
    H       -0.55333        0.04465       -0.91292
    H       -0.55333       -0.04465        0.91292
     6 
Profile.38 HEAT OF FORMATION =    51.424 KCAL 
    C        0.00000        0.00000        0.00000
    C        1.41536        0.00000        0.00000
    H        1.96869        0.91401        0.00000
    H        1.96869       -0.91401        0.00000
    H       -0.55333        0.04146       -0.91307
    H       -0.55333       -0.04146        0.91307
     6 
Profile.39 HEAT OF FORMATION =    51.420 KCAL 
    C        0.00000        0.00000        0.00000
    C        1.41536        0.00000        0.00000
    H        1.96869        0.91401        0.00000
    H        1.96869       -0.91401        0.00000
    H       -0.55333        0.03827       -0.91321
    H       -0.55333       -0.03827        0.91321
     6 
Profile.40 HEAT OF FORMATION =    51.417 KCAL 
    C        0.00000        0.00000        0.00000
    C        1.41536        0.00000        0.00000
    H        1.96869        0.91401        0.00000
    H        1.96869       -0.91401        0.00000
    H       -0.55333        0.03509       -0.91334
    H       -0.55333       -0.03509        0.91334
     6 
Profile.41 HEAT OF FORMATION =    51.413 KCAL 
    C        0.00000        0.00000        0.00000
    C        1.41536        0.00000        0.00000
    H        1.96869        0.91401        0.00000
    H        1.96869       -0.91401        0.00000
    H       -0.55333        0.03190       -0.91346
    H       -0.55333       -0.03190        0.91346
     6 
Profile.42 HEAT OF FORMATION =    51.410 KCAL 
    C        0.00000        0.00000        0.00000
    C        1.41536        0.00000        0.00000
    H        1.96869        0.91401        0.00000
    H        1.96869       -0.91401        0.00000
    H       -0.55333        0.02871       -0.91356
    H       -0.55333       -0.02871        0.91356
     6 
Profile.43 HEAT OF FORMATION =    51.407 KCAL 
    C        0.00000        0.00000        0.00000
    C        1.41536        0.00000        0.00000
    H        1.96869        0.91401        0.00000
    H        1.96869       -0.91401        0.00000
    H       -0.55333        0.02552       -0.91366
    H       -0.55333       -0.02552        0.91366
     6 
Profile.44 HEAT OF FORMATION =    51.405 KCAL 
    C        0.00000        0.00000        0.00000
    C        1.41536        0.00000        0.00000
    H        1.96869        0.91401        0.00000
    H        1.96869       -0.91401        0.00000
    H       -0.55333        0.02233       -0.91374
    H       -0.55333       -0.02233        0.91374
     6 
Profile.45 HEAT OF FORMATION =    51.403 KCAL 
    C        0.00000        0.00000        0.00000
    C        1.41536        0.00000        0.00000
    H        1.96869        0.91401        0.00000
    H        1.96869       -0.91401        0.00000
    H       -0.55333        0.01914       -0.91381
    H       -0.55333       -0.01914        0.91381
     6 
Profile.46 HEAT OF FORMATION =    51.401 KCAL 
    C        0.00000        0.00000        0.00000
    C        1.41536        0.00000        0.00000
    H        1.96869        0.91401        0.00000
    H        1.96869       -0.91401        0.00000
    H       -0.55333        0.01595       -0.91387
    H       -0.55333       -0.01595        0.91387
     6 
Profile.47 HEAT OF FORMATION =    51.399 KCAL 
    C        0.00000        0.00000        0.00000
    C        1.41536        0.00000        0.00000
    H        1.96869        0.91401        0.00000
    H        1.96869       -0.91401        0.00000
    H       -0.55333        0.01276       -0.91392
    H       -0.55333       -0.01276        0.91392
     6 
Profile.48 HEAT OF FORMATION =    51.398 KCAL 
    C        0.00000        0.00000        0.00000
    C        1.41536        0.00000        0.00000
    H        1.96869        0.91401        0.00000
    H        1.96869       -0.91401        0.00000
    H       -0.55333        0.00957       -0.91396
    H       -0.55333       -0.00957        0.91396
     6 
Profile.49 HEAT OF FORMATION =    51.397 KCAL 
    C        0.00000        0.00000        0.00000
    C        1.41536        0.00000        0.00000
    H        1.96869        0.91401        0.00000
    H        1.96869       -0.91401        0.00000
    H       -0.55333        0.00638       -0.91399
    H       -0.55333       -0.00638        0.91399
     6 
Profile.50 HEAT OF FORMATION =    51.397 KCAL 
    C        0.00000        0.00000        0.00000
    C        1.41536        0.00000        0.00000
    H        1.96869        0.91401        0.00000
    H        1.96869       -0.91401        0.00000
    H       -0.55333        0.00319       -0.91401
    H       -0.55333       -0.00319        0.91401
     6 
Profile.51 HEAT OF FORMATION =    51.397 KCAL 
    C        0.00000        0.00000        0.00000
    C        1.41536        0.00000        0.00000
    H        1.96869        0.91401        0.00000
    H        1.96869       -0.91401        0.00000
    H       -0.55333        0.00000       -0.91401
    H       -0.55333       -0.00000        0.91401
     6 
Profile.52 HEAT OF FORMATION =    51.397 KCAL 
    C        0.00000        0.00000        0.00000
    C        1.41536        0.00000        0.00000
    H        1.96869        0.91401        0.00000
    H        1.96869       -0.91401        0.00000
    H       -0.55333       -0.00319       -0.91401
    H       -0.55333        0.00319        0.91401
     6 
Profile.53 HEAT OF FORMATION =    51.397 KCAL 
    C        0.00000        0.00000        0.00000
    C        1.41536        0.00000        0.00000
    H        1.96869        0.91401        0.00000
    H        1.96869       -0.91401        0.00000
    H       -0.55333       -0.00638       -0.91399
    H       -0.55333        0.00638        0.91399
     6 
Profile.54 HEAT OF FORMATION =    51.398 KCAL 
    C        0.00000        0.00000        0.00000
    C        1.41536        0.00000        0.00000
    H        1.96869        0.91401        0.00000
    H        1.96869       -0.91401        0.00000
    H       -0.55333       -0.00957       -0.91396
    H       -0.55333        0.00957        0.91396
     6 
Profile.55 HEAT OF FORMATION =    51.399 KCAL 
    C        0.00000        0.00000        0.00000
    C        1.41536        0.00000        0.00000
    H        1.96869        0.91401        0.00000
    H        1.96869       -0.91401        0.00000
    H       -0.55333       -0.01276       -0.91392
    H       -0.55333        0.01276        0.91392
     6 
Profile.56 HEAT OF FORMATION =    51.401 KCAL 
    C        0.00000        0.00000        0.00000
    C        1.41536        0.00000        0.00000
    H        1.96869        0.91401        0.00000
    H        1.96869       -0.91401        0.00000
    H       -0.55333       -0.01595       -0.91387
    H       -0.55333        0.01595        0.91387
     6 
Profile.57 HEAT OF FORMATION =    51.403 KCAL 
    C        0.00000        0.00000        0.00000
    C        1.41536        0.00000        0.00000
    H        1.96869        0.91401        0.00000
    H        1.96869       -0.91401        0.00000
    H       -0.55333       -0.01914       -0.91381
    H       -0.55333        0.01914        0.91381
     6 
Profile.58 HEAT OF FORMATION =    51.405 KCAL 
    C        0.00000        0.00000        0.00000
    C        1.41536        0.00000        0.00000
    H        1.96869        0.91401        0.00000
    H        1.96869       -0.91401        0.00000
    H       -0.55333       -0.02233       -0.91374
    H       -0.55333        0.02233        0.91374
     6 
Profile.59 HEAT OF FORMATION =    51.407 KCAL 
    C        0.00000        0.00000        0.00000
    C        1.41536        0.00000        0.00000
    H        1.96869        0.91401        0.00000
    H        1.96869       -0.91401        0.00000
    H       -0.55333       -0.02552       -0.91366
    H       -0.55333        0.02552        0.91366
     6 
Profile.60 HEAT OF FORMATION =    51.410 KCAL 
    C        0.00000        0.00000        0.00000
    C        1.41536        0.00000        0.00000
    H        1.96869        0.91401        0.00000
    H        1.96869       -0.91401        0.00000
    H       -0.55333       -0.02871       -0.91356
    H       -0.55333        0.02871        0.91356
     6 
Profile.61 HEAT OF FORMATION =    51.413 KCAL 
    C        0.00000        0.00000        0.00000
    C        1.41536        0.00000        0.00000
    H        1.96869        0.91401        0.00000
    H        1.96869       -0.91401        0.00000
    H       -0.55333       -0.03190       -0.91346
    H       -0.55333        0.03190        0.91346
     6 
Profile.62 HEAT OF FORMATION =    51.417 KCAL 
    C        0.00000        0.00000        0.00000
    C        1.41536        0.00000        0.00000
    H        1.96869        0.91401        0.00000
    H        1.96869       -0.91401        0.00000
    H       -0.55333       -0.03509       -0.91334
    H       -0.55333        0.03509        0.91334
     6 
Profile.63 HEAT OF FORMATION =    51.420 KCAL 
    C        0.00000        0.00000        0.00000
    C        1.41536        0.00000        0.00000
    H        1.96869        0.91401        0.00000
    H        1.96869       -0.91401        0.00000
    H       -0.55333       -0.03827       -0.91321
    H       -0.55333        0.03827        0.91321
     6 
Profile.64 HEAT OF FORMATION =    51.424 KCAL 
    C        0.00000        0.00000        0.00000
    C        1.41536        0.00000        0.00000
    H        1.96869        0.91401        0.00000
    H        1.96869       -0.91401        0.00000
    H       -0.55333       -0.04146       -0.91307
    H       -0.55333        0.04146        0.91307
     6 
Profile.65 HEAT OF FORMATION =    51.429 KCAL 
    C        0.00000        0.00000        0.00000
    C        1.41536        0.00000        0.00000
    H        1.96869        0.91401        0.00000
    H        1.96869       -0.91401        0.00000
    H       -0.55333       -0.04465       -0.91292
    H       -0.55333        0.04465        0.91292
     6 
Profile.66 HEAT OF FORMATION =    51.434 KCAL 
    C        0.00000        0.00000        0.00000
    C        1.41536        0.00000        0.00000
    H        1.96869        0.91401        0.00000
    H        1.96869       -0.91401        0.00000
    H       -0.55333       -0.04784       -0.91276
    H       -0.55333        0.04784        0.91276
     6 
Profile.67 HEAT OF FORMATION =    51.439 KCAL 
    C        0.00000        0.00000        0.00000
    C        1.41536        0.00000        0.00000
    H        1.96869        0.91401        0.00000
    H        1.96869       -0.91401        0.00000
    H       -0.55333       -0.05102       -0.91259
    H       -0.55333        0.05102        0.91259
     6 
Profile.68 HEAT OF FORMATION =    51.444 KCAL 
    C        0.00000        0.00000        0.00000
    C        1.41536        0.00000        0.00000
    H        1.96869        0.91401        0.00000
    H        1.96869       -0.91401        0.00000
    H       -0.55333       -0.05421       -0.91240
    H       -0.55333        0.05421        0.91240
     6 
Profile.69 HEAT OF FORMATION =    51.450 KCAL 
    C        0.00000        0.00000        0.00000
    C        1.41536        0.00000        0.00000
    H        1.96869        0.91401        0.00000
    H        1.96869       -0.91401        0.00000
    H       -0.55333       -0.05739       -0.91221
    H       -0.55333        0.05739        0.91221
     6 
Profile.70 HEAT OF FORMATION =    51.456 KCAL 
    C        0.00000        0.00000        0.00000
    C        1.41536        0.00000        0.00000
    H        1.96869        0.91401        0.00000
    H        1.96869       -0.91401        0.00000
    H       -0.55333       -0.06058       -0.91200
    H       -0.55333        0.06058        0.91200
     6 
Profile.71 HEAT OF FORMATION =    51.462 KCAL 
    C        0.00000        0.00000        0.00000
    C        1.41536        0.00000        0.00000
    H        1.96869        0.91401        0.00000
    H        1.96869       -0.91401        0.00000
    H       -0.55333       -0.06376       -0.91179
    H       -0.55333        0.06376        0.91179
     6 
Profile.72 HEAT OF FORMATION =    51.469 KCAL 
    C        0.00000        0.00000        0.00000
    C        1.41536        0.00000        0.00000
    H        1.96869        0.91401        0.00000
    H        1.96869       -0.91401        0.00000
    H       -0.55333       -0.06694       -0.91156
    H       -0.55333        0.06694        0.91156
     6 
Profile.73 HEAT OF FORMATION =    51.476 KCAL 
    C        0.00000        0.00000        0.00000
    C        1.41536        0.00000        0.00000
    H        1.96869        0.91401        0.00000
    H        1.96869       -0.91401        0.00000
    H       -0.55333       -0.07012       -0.91132
    H       -0.55333        0.07012        0.91132
     6 
Profile.74 HEAT OF FORMATION =    51.483 KCAL 
    C        0.00000        0.00000        0.00000
    C        1.41536        0.00000        0.00000
    H        1.96869        0.91401        0.00000
    H        1.96869       -0.91401        0.00000
    H       -0.55333       -0.07330       -0.91107
    H       -0.55333        0.07330        0.91107
     6 
Profile.75 HEAT OF FORMATION =    51.491 KCAL 
    C        0.00000        0.00000        0.00000
    C        1.41536        0.00000        0.00000
    H        1.96869        0.91401        0.00000
    H        1.96869       -0.91401        0.00000
    H       -0.55333       -0.07648       -0.91081
    H       -0.55333        0.07648        0.91081
     6 
Profile.76 HEAT OF FORMATION =    51.499 KCAL 
    C        0.00000        0.00000        0.00000
    C        1.41536        0.00000        0.00000
    H        1.96869        0.91401        0.00000
    H        1.96869       -0.91401        0.00000
    H       -0.55333       -0.07966       -0.91053
    H       -0.55333        0.07966        0.91053
     6 
Profile.77 HEAT OF FORMATION =    51.507 KCAL 
    C        0.00000        0.00000        0.00000
    C        1.41536        0.00000        0.00000
    H        1.96869        0.91401        0.00000
    H        1.96869       -0.91401        0.00000
    H       -0.55333       -0.08284       -0.91025
    H       -0.55333        0.08284        0.91025
     6 
Profile.78 HEAT OF FORMATION =    51.516 KCAL 
    C        0.00000        0.00000        0.00000
    C        1.41536        0.00000        0.00000
    H        1.96869        0.91401        0.00000
    H        1.96869       -0.91401        0.00000
    H       -0.55333       -0.08602       -0.90996
    H       -0.55333        0.08602        0.90996
     6 
Profile.79 HEAT OF FORMATION =    51.525 KCAL 
    C        0.00000        0.00000        0.00000
    C        1.41536        0.00000        0.00000
    H        1.96869        0.91401        0.00000
    H        1.96869       -0.91401        0.00000
    H       -0.55333       -0.08919       -0.90965
    H       -0.55333        0.08919        0.90965
     6 
Profile.80 HEAT OF FORMATION =    51.534 KCAL 
    C        0.00000        0.00000        0.00000
    C        1.41536        0.00000        0.00000
    H        1.96869        0.91401        0.00000
    H        1.96869       -0.91401        0.00000
    H       -0.55333       -0.09237       -0.90933
    H       -0.55333        0.09237        0.90933
     6 
Profile.81 HEAT OF FORMATION =    51.544 KCAL 
    C        0.00000        0.00000        0.00000
    C        1.41536        0.00000        0.00000
    H        1.96869        0.91401        0.00000
    H        1.96869       -0.91401        0.00000
    H       -0.55333       -0.09554       -0.90901
    H       -0.55333        0.09554        0.90901
     6 
Profile.82 HEAT OF FORMATION =    51.554 KCAL 
    C        0.00000        0.00000        0.00000
    C        1.41536        0.00000        0.00000
    H        1.96869        0.91401        0.00000
    H        1.96869       -0.91401        0.00000
    H       -0.55333       -0.09871       -0.90867
    H       -0.55333        0.09871        0.90867
     6 
Profile.83 HEAT OF FORMATION =    51.564 KCAL 
    C        0.00000        0.00000        0.00000
    C        1.41536        0.00000        0.00000
    H        1.96869        0.91401        0.00000
    H        1.96869       -0.91401        0.00000
    H       -0.55333       -0.10188       -0.90832
    H       -0.55333        0.10188        0.90832
     6 
Profile.84 HEAT OF FORMATION =    51.575 KCAL 
    C        0.00000        0.00000        0.00000
    C        1.41536        0.00000        0.00000
    H        1.96869        0.91401        0.00000
    H        1.96869       -0.91401        0.00000
    H       -0.55333       -0.10505       -0.90796
    H       -0.55333        0.10505        0.90796
     6 
Profile.85 HEAT OF FORMATION =    51.585 KCAL 
    C        0.00000        0.00000        0.00000
    C        1.41536        0.00000        0.00000
    H        1.96869        0.91401        0.00000
    H        1.96869       -0.91401        0.00000
    H       -0.55333       -0.10822       -0.90758
    H       -0.55333        0.10822        0.90758
     6 
Profile.86 HEAT OF FORMATION =    51.597 KCAL 
    C        0.00000        0.00000        0.00000
    C        1.41536        0.00000        0.00000
    H        1.96869        0.91401        0.00000
    H        1.96869       -0.91401        0.00000
    H       -0.55333       -0.11139       -0.90720
    H       -0.55333        0.11139        0.90720
     6 
Profile.87 HEAT OF FORMATION =    51.608 KCAL 
    C        0.00000        0.00000        0.00000
    C        1.41536        0.00000        0.00000
    H        1.96869        0.91401        0.00000
    H        1.96869       -0.91401        0.00000
    H       -0.55333       -0.11456       -0.90681
    H       -0.55333        0.11456        0.90681
     6 
Profile.88 HEAT OF FORMATION =    51.620 KCAL 
    C        0.00000        0.00000        0.00000
    C        1.41536        0.00000        0.00000
    H        1.96869        0.91401        0.00000
    H        1.96869       -0.91401        0.00000
    H       -0.55333       -0.11772       -0.90640
    H       -0.55333        0.11772        0.90640
     6 
Profile.89 HEAT OF FORMATION =    51.632 KCAL 
    C        0.00000        0.00000        0.00000
    C        1.41536        0.00000        0.00000
    H        1.96869        0.91401        0.00000
    H        1.96869       -0.91401        0.00000
    H       -0.55333       -0.12088       -0.90598
    H       -0.55333        0.12088        0.90598
     6 
Profile.90 HEAT OF FORMATION =    51.645 KCAL 
    C        0.00000        0.00000        0.00000
    C        1.41536        0.00000        0.00000
    H        1.96869        0.91401        0.00000
    H        1.96869       -0.91401        0.00000
    H       -0.55333       -0.12405       -0.90556
    H       -0.55333        0.12405        0.90556
     6 
Profile.91 HEAT OF FORMATION =    51.658 KCAL 
    C        0.00000        0.00000        0.00000
    C        1.41536        0.00000        0.00000
    H        1.96869        0.91401        0.00000
    H        1.96869       -0.91401        0.00000
    H       -0.55333       -0.12721       -0.90512
    H       -0.55333        0.12721        0.90512
     6 
Profile.92 HEAT OF FORMATION =    51.671 KCAL 
    C        0.00000        0.00000        0.00000
    C        1.41536        0.00000        0.00000
    H        1.96869        0.91401        0.00000
    H        1.96869       -0.91401        0.00000
    H       -0.55333       -0.13036       -0.90467
    H       -0.55333        0.13036        0.90467
     6 
Profile.93 HEAT OF FORMATION =    51.684 KCAL 
    C        0.00000        0.00000        0.00000
    C        1.41536        0.00000        0.00000
    H        1.96869        0.91401        0.00000
    H        1.96869       -0.91401        0.00000
    H       -0.55333       -0.13352       -0.90421
    H       -0.55333        0.13352        0.90421
     6 
Profile.94 HEAT OF FORMATION =    51.698 KCAL 
    C        0.00000        0.00000        0.00000
    C        1.41536        0.00000        0.00000
    H        1.96869        0.91401        0.00000
    H        1.96869       -0.91401        0.00000
    H       -0.55333       -0.13668       -0.90374
    H       -0.55333        0.13668        0.90374
     6 
Profile.95 HEAT OF FORMATION =    51.712 KCAL 
    C        0.00000        0.00000        0.00000
    C        1.41536        0.00000        0.00000
    H        1.96869        0.91401        0.00000
    H        1.96869       -0.91401        0.00000
    H       -0.55333       -0.13983       -0.90325
    H       -0.55333        0.13983        0.90325
     6 
Profile.96 HEAT OF FORMATION =    51.727 KCAL 
    C        0.00000        0.00000        0.00000
    C        1.41536        0.00000        0.00000
    H        1.96869        0.91401        0.00000
    H        1.96869       -0.91401        0.00000
    H       -0.55333       -0.14298       -0.90276
    H       -0.55333        0.14298        0.90276
     6 
Profile.97 HEAT OF FORMATION =    51.741 KCAL 
    C        0.00000        0.00000        0.00000
    C        1.41536        0.00000        0.00000
    H        1.96869        0.91401        0.00000
    H        1.96869       -0.91401        0.00000
    H       -0.55333       -0.14613       -0.90225
    H       -0.55333        0.14613        0.90225
     6 
Profile.98 HEAT OF FORMATION =    51.757 KCAL 
    C        0.00000        0.00000        0.00000
    C        1.41536        0.00000        0.00000
    H        1.96869        0.91401        0.00000
    H        1.96869       -0.91401        0.00000
    H       -0.55333       -0.14928       -0.90174
    H       -0.55333        0.14928        0.90174
     6 
Profile.99 HEAT OF FORMATION =    51.772 KCAL 
    C        0.00000        0.00000        0.00000
    C        1.41536        0.00000        0.00000
    H        1.96869        0.91401        0.00000
    H        1.96869       -0.91401        0.00000
    H       -0.55333       -0.15243       -0.90121
    H       -0.55333        0.15243        0.90121
     6 
Profile.100 HEAT OF FORMATION =    51.787 KCAL 
    C        0.00000        0.00000        0.00000
    C        1.41630        0.00000        0.00000
    H        1.97006        0.91343        0.00000
    H        1.97006       -0.91343        0.00000
    H       -0.55375       -0.15547       -0.90010
    H       -0.55375        0.15547        0.90010
