     2 
Profile.1 HEAT OF FORMATION =    384.197 KCAL 
    F        0.00000        0.00000        0.00000
    F        1.00000        0.00000        0.00000
     2 
Profile.2 HEAT OF FORMATION =    326.082 KCAL 
    F        0.00000        0.00000        0.00000
    F        1.02000        0.00000        0.00000
     2 
Profile.3 HEAT OF FORMATION =    275.018 KCAL 
    F        0.00000        0.00000        0.00000
    F        1.04000        0.00000        0.00000
     2 
Profile.4 HEAT OF FORMATION =    230.256 KCAL 
    F        0.00000        0.00000        0.00000
    F        1.06000        0.00000        0.00000
     2 
Profile.5 HEAT OF FORMATION =    191.127 KCAL 
    F        0.00000        0.00000        0.00000
    F        1.08000        0.00000        0.00000
     2 
Profile.6 HEAT OF FORMATION =    157.031 KCAL 
    F        0.00000        0.00000        0.00000
    F        1.10000        0.00000        0.00000
     2 
Profile.7 HEAT OF FORMATION =    127.431 KCAL 
    F        0.00000        0.00000        0.00000
    F        1.12000        0.00000        0.00000
     2 
Profile.8 HEAT OF FORMATION =    101.841 KCAL 
    F        0.00000        0.00000        0.00000
    F        1.14000        0.00000        0.00000
     2 
Profile.9 HEAT OF FORMATION =    79.826 KCAL 
    F        0.00000        0.00000        0.00000
    F        1.16000        0.00000        0.00000
     2 
Profile.10 HEAT OF FORMATION =    60.995 KCAL 
    F        0.00000        0.00000        0.00000
    F        1.18000        0.00000        0.00000
     2 
Profile.11 HEAT OF FORMATION =    44.995 KCAL 
    F        0.00000        0.00000        0.00000
    F        1.20000        0.00000        0.00000
     2 
Profile.12 HEAT OF FORMATION =    31.507 KCAL 
    F        0.00000        0.00000        0.00000
    F        1.22000        0.00000        0.00000
     2 
Profile.13 HEAT OF FORMATION =    20.246 KCAL 
    F        0.00000        0.00000        0.00000
    F        1.24000        0.00000        0.00000
     2 
Profile.14 HEAT OF FORMATION =    10.955 KCAL 
    F        0.00000        0.00000        0.00000
    F        1.26000        0.00000        0.00000
     2 
Profile.15 HEAT OF FORMATION =     3.401 KCAL 
    F        0.00000        0.00000        0.00000
    F        1.28000        0.00000        0.00000
     2 
Profile.16 HEAT OF FORMATION =    -2.623 KCAL 
    F        0.00000        0.00000        0.00000
    F        1.30000        0.00000        0.00000
     2 
Profile.17 HEAT OF FORMATION =    -7.303 KCAL 
    F        0.00000        0.00000        0.00000
    F        1.32000        0.00000        0.00000
     2 
Profile.18 HEAT OF FORMATION =   -10.809 KCAL 
    F        0.00000        0.00000        0.00000
    F        1.34000        0.00000        0.00000
     2 
Profile.19 HEAT OF FORMATION =   -13.288 KCAL 
    F        0.00000        0.00000        0.00000
    F        1.36000        0.00000        0.00000
     2 
Profile.20 HEAT OF FORMATION =   -14.877 KCAL 
    F        0.00000        0.00000        0.00000
    F        1.38000        0.00000        0.00000
     2 
Profile.21 HEAT OF FORMATION =   -15.694 KCAL 
    F        0.00000        0.00000        0.00000
    F        1.40000        0.00000        0.00000
     2 
Profile.22 HEAT OF FORMATION =   -15.847 KCAL 
    F        0.00000        0.00000        0.00000
    F        1.42000        0.00000        0.00000
     2 
Profile.23 HEAT OF FORMATION =   -15.431 KCAL 
    F        0.00000        0.00000        0.00000
    F        1.44000        0.00000        0.00000
     2 
Profile.24 HEAT OF FORMATION =   -14.531 KCAL 
    F        0.00000        0.00000        0.00000
    F        1.46000        0.00000        0.00000
     2 
Profile.25 HEAT OF FORMATION =   -13.223 KCAL 
    F        0.00000        0.00000        0.00000
    F        1.48000        0.00000        0.00000
     2 
Profile.26 HEAT OF FORMATION =   -11.573 KCAL 
    F        0.00000        0.00000        0.00000
    F        1.50000        0.00000        0.00000
     2 
Profile.27 HEAT OF FORMATION =    -9.640 KCAL 
    F        0.00000        0.00000        0.00000
    F        1.52000        0.00000        0.00000
     2 
Profile.28 HEAT OF FORMATION =    -7.476 KCAL 
    F        0.00000        0.00000        0.00000
    F        1.54000        0.00000        0.00000
     2 
Profile.29 HEAT OF FORMATION =    -5.127 KCAL 
    F        0.00000        0.00000        0.00000
    F        1.56000        0.00000        0.00000
     2 
Profile.30 HEAT OF FORMATION =    -2.633 KCAL 
    F        0.00000        0.00000        0.00000
    F        1.58000        0.00000        0.00000
     2 
Profile.31 HEAT OF FORMATION =    -0.029 KCAL 
    F        0.00000        0.00000        0.00000
    F        1.60000        0.00000        0.00000
     2 
Profile.32 HEAT OF FORMATION =     2.655 KCAL 
    F        0.00000        0.00000        0.00000
    F        1.62000        0.00000        0.00000
     2 
Profile.33 HEAT OF FORMATION =     5.391 KCAL 
    F        0.00000        0.00000        0.00000
    F        1.64000        0.00000        0.00000
     2 
Profile.34 HEAT OF FORMATION =     8.158 KCAL 
    F        0.00000        0.00000        0.00000
    F        1.66000        0.00000        0.00000
     2 
Profile.35 HEAT OF FORMATION =    10.936 KCAL 
    F        0.00000        0.00000        0.00000
    F        1.68000        0.00000        0.00000
     2 
Profile.36 HEAT OF FORMATION =    13.708 KCAL 
    F        0.00000        0.00000        0.00000
    F        1.70000        0.00000        0.00000
     2 
Profile.37 HEAT OF FORMATION =    16.459 KCAL 
    F        0.00000        0.00000        0.00000
    F        1.72000        0.00000        0.00000
     2 
Profile.38 HEAT OF FORMATION =    19.178 KCAL 
    F        0.00000        0.00000        0.00000
    F        1.74000        0.00000        0.00000
     2 
Profile.39 HEAT OF FORMATION =    21.854 KCAL 
    F        0.00000        0.00000        0.00000
    F        1.76000        0.00000        0.00000
     2 
Profile.40 HEAT OF FORMATION =    24.481 KCAL 
    F        0.00000        0.00000        0.00000
    F        1.78000        0.00000        0.00000
     2 
Profile.41 HEAT OF FORMATION =    27.050 KCAL 
    F        0.00000        0.00000        0.00000
    F        1.80000        0.00000        0.00000
     2 
Profile.42 HEAT OF FORMATION =    29.557 KCAL 
    F        0.00000        0.00000        0.00000
    F        1.82000        0.00000        0.00000
     2 
Profile.43 HEAT OF FORMATION =    31.997 KCAL 
    F        0.00000        0.00000        0.00000
    F        1.84000        0.00000        0.00000
     2 
Profile.44 HEAT OF FORMATION =    34.368 KCAL 
    F        0.00000        0.00000        0.00000
    F        1.86000        0.00000        0.00000
     2 
Profile.45 HEAT OF FORMATION =    36.668 KCAL 
    F        0.00000        0.00000        0.00000
    F        1.88000        0.00000        0.00000
     2 
Profile.46 HEAT OF FORMATION =    38.894 KCAL 
    F        0.00000        0.00000        0.00000
    F        1.90000        0.00000        0.00000
     2 
Profile.47 HEAT OF FORMATION =    41.046 KCAL 
    F        0.00000        0.00000        0.00000
    F        1.92000        0.00000        0.00000
     2 
Profile.48 HEAT OF FORMATION =    43.125 KCAL 
    F        0.00000        0.00000        0.00000
    F        1.94000        0.00000        0.00000
     2 
Profile.49 HEAT OF FORMATION =    45.130 KCAL 
    F        0.00000        0.00000        0.00000
    F        1.96000        0.00000        0.00000
     2 
Profile.50 HEAT OF FORMATION =    47.062 KCAL 
    F        0.00000        0.00000        0.00000
    F        1.98000        0.00000        0.00000
     2 
Profile.51 HEAT OF FORMATION =    48.923 KCAL 
    F        0.00000        0.00000        0.00000
    F        2.00000        0.00000        0.00000
     2 
Profile.52 HEAT OF FORMATION =    50.714 KCAL 
    F        0.00000        0.00000        0.00000
    F        2.02000        0.00000        0.00000
     2 
Profile.53 HEAT OF FORMATION =    52.435 KCAL 
    F        0.00000        0.00000        0.00000
    F        2.04000        0.00000        0.00000
     2 
Profile.54 HEAT OF FORMATION =    54.090 KCAL 
    F        0.00000        0.00000        0.00000
    F        2.06000        0.00000        0.00000
     2 
Profile.55 HEAT OF FORMATION =    55.680 KCAL 
    F        0.00000        0.00000        0.00000
    F        2.08000        0.00000        0.00000
     2 
Profile.56 HEAT OF FORMATION =    57.207 KCAL 
    F        0.00000        0.00000        0.00000
    F        2.10000        0.00000        0.00000
     2 
Profile.57 HEAT OF FORMATION =    58.673 KCAL 
    F        0.00000        0.00000        0.00000
    F        2.12000        0.00000        0.00000
     2 
Profile.58 HEAT OF FORMATION =    60.081 KCAL 
    F        0.00000        0.00000        0.00000
    F        2.14000        0.00000        0.00000
     2 
Profile.59 HEAT OF FORMATION =    61.432 KCAL 
    F        0.00000        0.00000        0.00000
    F        2.16000        0.00000        0.00000
     2 
Profile.60 HEAT OF FORMATION =    62.729 KCAL 
    F        0.00000        0.00000        0.00000
    F        2.18000        0.00000        0.00000
     2 
Profile.61 HEAT OF FORMATION =    63.974 KCAL 
    F        0.00000        0.00000        0.00000
    F        2.20000        0.00000        0.00000
     2 
Profile.62 HEAT OF FORMATION =    65.169 KCAL 
    F        0.00000        0.00000        0.00000
    F        2.22000        0.00000        0.00000
     2 
Profile.63 HEAT OF FORMATION =    66.317 KCAL 
    F        0.00000        0.00000        0.00000
    F        2.24000        0.00000        0.00000
     2 
Profile.64 HEAT OF FORMATION =    67.419 KCAL 
    F        0.00000        0.00000        0.00000
    F        2.26000        0.00000        0.00000
     2 
Profile.65 HEAT OF FORMATION =    68.478 KCAL 
    F        0.00000        0.00000        0.00000
    F        2.28000        0.00000        0.00000
     2 
Profile.66 HEAT OF FORMATION =    69.496 KCAL 
    F        0.00000        0.00000        0.00000
    F        2.30000        0.00000        0.00000
     2 
Profile.67 HEAT OF FORMATION =    70.474 KCAL 
    F        0.00000        0.00000        0.00000
    F        2.32000        0.00000        0.00000
     2 
Profile.68 HEAT OF FORMATION =    71.415 KCAL 
    F        0.00000        0.00000        0.00000
    F        2.34000        0.00000        0.00000
     2 
Profile.69 HEAT OF FORMATION =    72.319 KCAL 
    F        0.00000        0.00000        0.00000
    F        2.36000        0.00000        0.00000
     2 
Profile.70 HEAT OF FORMATION =    73.191 KCAL 
    F        0.00000        0.00000        0.00000
    F        2.38000        0.00000        0.00000
     2 
Profile.71 HEAT OF FORMATION =    74.029 KCAL 
    F        0.00000        0.00000        0.00000
    F        2.40000        0.00000        0.00000
     2 
Profile.72 HEAT OF FORMATION =    74.838 KCAL 
    F        0.00000        0.00000        0.00000
    F        2.42000        0.00000        0.00000
     2 
Profile.73 HEAT OF FORMATION =    75.617 KCAL 
    F        0.00000        0.00000        0.00000
    F        2.44000        0.00000        0.00000
     2 
Profile.74 HEAT OF FORMATION =    76.368 KCAL 
    F        0.00000        0.00000        0.00000
    F        2.46000        0.00000        0.00000
     2 
Profile.75 HEAT OF FORMATION =    77.094 KCAL 
    F        0.00000        0.00000        0.00000
    F        2.48000        0.00000        0.00000
     2 
Profile.76 HEAT OF FORMATION =    77.795 KCAL 
    F        0.00000        0.00000        0.00000
    F        2.50000        0.00000        0.00000
     2 
Profile.77 HEAT OF FORMATION =    78.472 KCAL 
    F        0.00000        0.00000        0.00000
    F        2.52000        0.00000        0.00000
     2 
Profile.78 HEAT OF FORMATION =    79.127 KCAL 
    F        0.00000        0.00000        0.00000
    F        2.54000        0.00000        0.00000
     2 
Profile.79 HEAT OF FORMATION =    79.760 KCAL 
    F        0.00000        0.00000        0.00000
    F        2.56000        0.00000        0.00000
     2 
Profile.80 HEAT OF FORMATION =    80.374 KCAL 
    F        0.00000        0.00000        0.00000
    F        2.58000        0.00000        0.00000
     2 
Profile.81 HEAT OF FORMATION =    80.969 KCAL 
    F        0.00000        0.00000        0.00000
    F        2.60000        0.00000        0.00000
     2 
Profile.82 HEAT OF FORMATION =    81.545 KCAL 
    F        0.00000        0.00000        0.00000
    F        2.62000        0.00000        0.00000
     2 
Profile.83 HEAT OF FORMATION =    82.105 KCAL 
    F        0.00000        0.00000        0.00000
    F        2.64000        0.00000        0.00000
     2 
Profile.84 HEAT OF FORMATION =    82.648 KCAL 
    F        0.00000        0.00000        0.00000
    F        2.66000        0.00000        0.00000
     2 
Profile.85 HEAT OF FORMATION =    83.176 KCAL 
    F        0.00000        0.00000        0.00000
    F        2.68000        0.00000        0.00000
     2 
Profile.86 HEAT OF FORMATION =    83.690 KCAL 
    F        0.00000        0.00000        0.00000
    F        2.70000        0.00000        0.00000
     2 
Profile.87 HEAT OF FORMATION =    84.189 KCAL 
    F        0.00000        0.00000        0.00000
    F        2.72000        0.00000        0.00000
     2 
Profile.88 HEAT OF FORMATION =    84.676 KCAL 
    F        0.00000        0.00000        0.00000
    F        2.74000        0.00000        0.00000
     2 
Profile.89 HEAT OF FORMATION =    85.150 KCAL 
    F        0.00000        0.00000        0.00000
    F        2.76000        0.00000        0.00000
     2 
Profile.90 HEAT OF FORMATION =    85.612 KCAL 
    F        0.00000        0.00000        0.00000
    F        2.78000        0.00000        0.00000
     2 
Profile.91 HEAT OF FORMATION =    86.062 KCAL 
    F        0.00000        0.00000        0.00000
    F        2.80000        0.00000        0.00000
     2 
Profile.92 HEAT OF FORMATION =    86.502 KCAL 
    F        0.00000        0.00000        0.00000
    F        2.82000        0.00000        0.00000
     2 
Profile.93 HEAT OF FORMATION =    86.932 KCAL 
    F        0.00000        0.00000        0.00000
    F        2.84000        0.00000        0.00000
     2 
Profile.94 HEAT OF FORMATION =    87.352 KCAL 
    F        0.00000        0.00000        0.00000
    F        2.86000        0.00000        0.00000
     2 
Profile.95 HEAT OF FORMATION =    87.763 KCAL 
    F        0.00000        0.00000        0.00000
    F        2.88000        0.00000        0.00000
     2 
Profile.96 HEAT OF FORMATION =    88.164 KCAL 
    F        0.00000        0.00000        0.00000
    F        2.90000        0.00000        0.00000
     2 
Profile.97 HEAT OF FORMATION =    88.558 KCAL 
    F        0.00000        0.00000        0.00000
    F        2.92000        0.00000        0.00000
     2 
Profile.98 HEAT OF FORMATION =    88.943 KCAL 
    F        0.00000        0.00000        0.00000
    F        2.94000        0.00000        0.00000
     2 
Profile.99 HEAT OF FORMATION =    89.321 KCAL 
    F        0.00000        0.00000        0.00000
    F        2.96000        0.00000        0.00000
     2 
Profile.100 HEAT OF FORMATION =    89.691 KCAL 
    F        0.00000        0.00000        0.00000
    F        2.98000        0.00000        0.00000
