     6 
Profile.1 HEAT OF FORMATION =   -149.374 KCAL =   -624.981 KJ
    F        0.00000        0.00000        0.00000
    I        6.29887        0.00000        0.00000
    C        4.14944        0.00000        0.00000
    H        3.79797       -1.03580        0.00034
    H        3.79788        0.51751       -0.89728
    H        3.79775        0.51820        0.89682
     6 
Profile.2 HEAT OF FORMATION =   -149.123 KCAL =   -623.930 KJ
    F        0.00000        0.00000        0.00000
    I        6.19890        0.00000        0.00000
    C        4.04945        0.00000        0.00000
    H        3.70131       -1.03669        0.00051
    H        3.70129        0.51770       -0.89821
    H        3.70107        0.51873        0.89750
     6 
Profile.3 HEAT OF FORMATION =   -149.184 KCAL =   -624.185 KJ
    F        0.00000        0.00000        0.00000
    I        6.09392        0.00000        0.00000
    C        3.94696        0.00000        0.00000
    H        3.59399       -1.03586        0.00081
    H        3.59418        0.51687       -0.89773
    H        3.59394        0.51852        0.89666
     6 
Profile.4 HEAT OF FORMATION =   -149.018 KCAL =   -623.490 KJ
    F        0.00000        0.00000        0.00000
    I        5.99742        0.00000        0.00000
    C        3.84871        0.00000        0.00000
    H        3.49966       -1.03640        0.00106
    H        3.49988        0.51696       -0.89829
    H        3.49958        0.51905        0.89696
     6 
Profile.5 HEAT OF FORMATION =   -149.198 KCAL =   -624.243 KJ
    F        0.00000        0.00000        0.00000
    I        5.89607        0.00000        0.00000
    C        3.74804        0.00000        0.00000
    H        3.39797       -1.03608        0.00136
    H        3.39805        0.51653       -0.89826
    H        3.39774        0.51919        0.89657
     6 
Profile.6 HEAT OF FORMATION =   -148.959 KCAL =   -623.244 KJ
    F        0.00000        0.00000        0.00000
    I        5.79162        0.00000        0.00000
    C        3.64581        0.00000        0.00000
    H        3.29173       -1.03540        0.00199
    H        3.29191        0.51559       -0.89797
    H        3.29155        0.51906        0.89578
     6 
Profile.7 HEAT OF FORMATION =   -148.831 KCAL =   -622.710 KJ
    F        0.00000        0.00000        0.00000
    I        5.69825        0.00000        0.00000
    C        3.54912        0.00000        0.00000
    H        3.20220       -1.03615        0.00225
    H        3.20235        0.51572       -0.89878
    H        3.20200        0.51970        0.89631
     6 
Profile.8 HEAT OF FORMATION =   -148.792 KCAL =   -622.546 KJ
    F        0.00000        0.00000        0.00000
    I        5.59387        0.00000        0.00000
    C        3.44694        0.00000        0.00000
    H        3.09531       -1.03547        0.00275
    H        3.09538        0.51517       -0.89842
    H        3.09517        0.51983        0.89544
     6 
Profile.9 HEAT OF FORMATION =   -148.702 KCAL =   -622.170 KJ
    F        0.00000        0.00000        0.00000
    I        5.49615        0.00000        0.00000
    C        3.34808        0.00000        0.00000
    H        2.99866       -1.03574        0.00296
    H        2.99892        0.51490       -0.89883
    H        2.99870        0.52018        0.89554
     6 
Profile.10 HEAT OF FORMATION =   -148.504 KCAL =   -621.339 KJ
    F        0.00000        0.00000        0.00000
    I        5.39943        0.00000        0.00000
    C        3.24971        0.00000        0.00000
    H        2.90386       -1.03625        0.00315
    H        2.90419        0.51498       -0.89939
    H        2.90400        0.52058        0.89592
     6 
Profile.11 HEAT OF FORMATION =   -148.321 KCAL =   -620.575 KJ
    F        0.00000        0.00000        0.00000
    I        5.30170        0.00000        0.00000
    C        3.15085        0.00000        0.00000
    H        2.80808       -1.03657        0.00326
    H        2.80857        0.51486       -0.89985
    H        2.80835        0.52056        0.89632
     6 
Profile.12 HEAT OF FORMATION =   -148.066 KCAL =   -619.509 KJ
    F        0.00000        0.00000        0.00000
    I        5.22923        0.00000        0.00000
    C        3.06461        0.00000        0.00000
    H        2.72448       -1.03681        0.00338
    H        2.72494        0.51516       -0.89996
    H        2.72472        0.52083        0.89644
     6 
Profile.13 HEAT OF FORMATION =   -147.779 KCAL =   -618.306 KJ
    F        0.00000        0.00000        0.00000
    I        5.11055        0.00000        0.00000
    C        2.95527        0.00000        0.00000
    H        2.61873       -1.03768        0.00343
    H        2.61933        0.51531       -0.90093
    H        2.61912        0.52118        0.89728
     6 
Profile.14 HEAT OF FORMATION =   -147.369 KCAL =   -616.591 KJ
    F        0.00000        0.00000        0.00000
    I        5.05501        0.00000        0.00000
    C        2.87751        0.00000        0.00000
    H        2.54307       -1.03788        0.00352
    H        2.54365        0.51569       -0.90092
    H        2.54341        0.52146        0.89732
     6 
Profile.15 HEAT OF FORMATION =   -146.816 KCAL =   -614.276 KJ
    F        0.00000        0.00000        0.00000
    I        4.93140        0.00000        0.00000
    C        2.76570        0.00000        0.00000
    H        2.43545       -1.03949        0.00345
    H        2.43611        0.51616       -0.90252
    H        2.43593        0.52219        0.89885
     6 
Profile.16 HEAT OF FORMATION =   -146.076 KCAL =   -611.183 KJ
    F        0.00000        0.00000        0.00000
    I        4.84731        0.00000        0.00000
    C        2.67366        0.00000        0.00000
    H        2.34619       -1.04027        0.00353
    H        2.34680        0.51644       -0.90322
    H        2.34648        0.52302        0.89923
     6 
Profile.17 HEAT OF FORMATION =   -145.079 KCAL =   -607.011 KJ
    F        0.00000        0.00000        0.00000
    I        4.76854        0.00000        0.00000
    C        2.58427        0.00000        0.00000
    H        2.26130       -1.04185        0.00413
    H        2.26193        0.51670       -0.90490
    H        2.26150        0.52426        0.90030
     6 
Profile.18 HEAT OF FORMATION =   -144.013 KCAL =   -602.549 KJ
    F        0.00000        0.00000        0.00000
    I        4.70242        0.00000        0.00000
    C        2.50121        0.00000        0.00000
    H        2.19143       -1.04466        0.00468
    H        2.19202        0.51756       -0.90759
    H        2.19143        0.52614        0.90257
     6 
Profile.19 HEAT OF FORMATION =   -142.368 KCAL =   -595.666 KJ
    F        0.00000        0.00000        0.00000
    I        4.64410        0.00000        0.00000
    C        2.42205        0.00000        0.00000
    H        2.12863       -1.04814        0.00502
    H        2.12917        0.51892       -0.91081
    H        2.12848        0.52792        0.90552
     6 
Profile.20 HEAT OF FORMATION =   -140.324 KCAL =   -587.117 KJ
    F        0.00000        0.00000        0.00000
    I        4.59802        0.00000        0.00000
    C        2.34901        0.00000        0.00000
    H        2.07474       -1.05259        0.00515
    H        2.07524        0.52141       -0.91447
    H        2.07449        0.53039        0.90916
     6 
Profile.21 HEAT OF FORMATION =   -138.338 KCAL =   -578.806 KJ
    F        0.00000        0.00000        0.00000
    I        4.56784        0.00000        0.00000
    C        2.28392        0.00000        0.00000
    H        2.03571       -1.05839        0.00454
    H        2.03532        0.52513       -0.91907
    H        2.03475        0.53315        0.91429
     6 
Profile.22 HEAT OF FORMATION =   -135.676 KCAL =   -567.669 KJ
    F        0.00000        0.00000        0.00000
    I        4.55167        0.00000        0.00000
    C        2.22583        0.00000        0.00000
    H        2.00277       -1.06304        0.00413
    H        2.00221        0.52781       -0.92282
    H        2.00167        0.53504        0.91859
     6 
Profile.23 HEAT OF FORMATION =   -132.678 KCAL =   -555.125 KJ
    F        0.00000        0.00000        0.00000
    I        4.55173        0.00000        0.00000
    C        2.17586        0.00000        0.00000
    H        1.99032       -1.06971        0.00404
    H        1.99024        0.53108       -0.92845
    H        1.99011        0.53845        0.92426
     6 
Profile.24 HEAT OF FORMATION =   -130.115 KCAL =   -544.402 KJ
    F        0.00000        0.00000        0.00000
    I        4.56672        0.00000        0.00000
    C        2.13336        0.00000        0.00000
    H        1.98417       -1.07479        0.00475
    H        1.98422        0.53363       -0.93285
    H        1.98419        0.54148        0.92843
     6 
Profile.25 HEAT OF FORMATION =   -128.067 KCAL =   -535.831 KJ
    F        0.00000        0.00000        0.00000
    I        4.58430        0.00000        0.00000
    C        2.09215        0.00000        0.00000
    H        1.98167       -1.07934        0.00399
    H        1.98134        0.53588       -0.93689
    H        1.98163        0.54375        0.93225
     6 
Profile.26 HEAT OF FORMATION =   -126.643 KCAL =   -529.876 KJ
    F        0.00000        0.00000        0.00000
    I        4.59155        0.00000        0.00000
    C        2.04577        0.00000        0.00000
    H        1.97507       -1.08333        0.00453
    H        1.97470        0.53796       -0.94016
    H        1.97505        0.54600        0.93560
     6 
Profile.27 HEAT OF FORMATION =   -126.279 KCAL =   -528.350 KJ
    F        0.00000        0.00000        0.00000
    I        4.59151        0.00000        0.00000
    C        1.99576        0.00000        0.00000
    H        1.96389       -1.08564        0.00552
    H        1.96350        0.53849       -0.94270
    H        1.96395        0.54653        0.93804
     6 
Profile.28 HEAT OF FORMATION =   -126.830 KCAL =   -530.658 KJ
    F        0.00000        0.00000        0.00000
    I        4.55278        0.00000        0.00000
    C        1.92639        0.00000        0.00000
    H        1.92848       -1.08652        0.00598
    H        1.92814        0.53852       -0.94341
    H        1.92848        0.54850        0.93813
     6 
Profile.29 HEAT OF FORMATION =   -128.789 KCAL =   -538.851 KJ
    F        0.00000        0.00000        0.00000
    I        4.45234        0.00000        0.00000
    C        1.82617        0.00000        0.00000
    H        1.87162       -1.08712        0.00621
    H        1.87144        0.53853       -0.94429
    H        1.87157        0.54918        0.93848
     6 
Profile.30 HEAT OF FORMATION =   -132.485 KCAL =   -554.315 KJ
    F        0.00000        0.00000        0.00000
    I        4.32832        0.00000        0.00000
    C        1.71416        0.00000        0.00000
    H        1.80574       -1.08734        0.00666
    H        1.80553        0.53831       -0.94469
    H        1.80566        0.54952        0.93854
     6 
Profile.31 HEAT OF FORMATION =   -138.266 KCAL =   -578.506 KJ
    F        0.00000        0.00000        0.00000
    I        4.24706        0.00000        0.00000
    C        1.62353        0.00000        0.00000
    H        1.75935       -1.08574        0.00633
    H        1.75945        0.53741       -0.94338
    H        1.75944        0.54868        0.93718
     6 
Profile.32 HEAT OF FORMATION =   -144.864 KCAL =   -606.110 KJ
    F        0.00000        0.00000        0.00000
    I        4.21338        0.00000        0.00000
    C        1.55669        0.00000        0.00000
    H        1.73414       -1.08236        0.00647
    H        1.73439        0.53571       -0.94043
    H        1.73440        0.54670        0.93431
     6 
Profile.33 HEAT OF FORMATION =   -151.526 KCAL =   -633.987 KJ
    F        0.00000        0.00000        0.00000
    I        4.21905        0.00000        0.00000
    C        1.50952        0.00000        0.00000
    H        1.71958       -1.07831        0.00661
    H        1.71982        0.53347       -0.93702
    H        1.71985        0.54480        0.93071
     6 
Profile.34 HEAT OF FORMATION =   -157.683 KCAL =   -659.744 KJ
    F        0.00000        0.00000        0.00000
    I        4.24661        0.00000        0.00000
    C        1.47330        0.00000        0.00000
    H        1.71392       -1.07315        0.00649
    H        1.71400        0.53093       -0.93252
    H        1.71375        0.54183        0.92616
     6 
Profile.35 HEAT OF FORMATION =   -163.017 KCAL =   -682.062 KJ
    F        0.00000        0.00000        0.00000
    I        4.29370        0.00000        0.00000
    C        1.44685        0.00000        0.00000
    H        1.71315       -1.06790        0.00589
    H        1.71317        0.52849       -0.92777
    H        1.71290        0.53900        0.92172
     6 
Profile.36 HEAT OF FORMATION =   -167.621 KCAL =   -701.328 KJ
    F        0.00000        0.00000        0.00000
    I        4.35042        0.00000        0.00000
    C        1.42521        0.00000        0.00000
    H        1.71323       -1.06302        0.00565
    H        1.71316        0.52616       -0.92351
    H        1.71305        0.53596        0.91794
     6 
Profile.37 HEAT OF FORMATION =   -171.335 KCAL =   -716.867 KJ
    F        0.00000        0.00000        0.00000
    I        4.41866        0.00000        0.00000
    C        1.40933        0.00000        0.00000
    H        1.71387       -1.05940        0.00548
    H        1.71379        0.52463       -0.92019
    H        1.71374        0.53405        0.91481
     6 
Profile.38 HEAT OF FORMATION =   -174.238 KCAL =   -729.012 KJ
    F        0.00000        0.00000        0.00000
    I        4.49438        0.00000        0.00000
    C        1.39719        0.00000        0.00000
    H        1.71659       -1.05580        0.00541
    H        1.71649        0.52345       -0.91671
    H        1.71649        0.53226        0.91161
     6 
Profile.39 HEAT OF FORMATION =   -176.457 KCAL =   -738.297 KJ
    F        0.00000        0.00000        0.00000
    I        4.57538        0.00000        0.00000
    C        1.38769        0.00000        0.00000
    H        1.71973       -1.05253        0.00511
    H        1.71960        0.52205       -0.91379
    H        1.71959        0.53044        0.90894
     6 
Profile.40 HEAT OF FORMATION =   -178.029 KCAL =   -744.874 KJ
    F        0.00000        0.00000        0.00000
    I        4.66063        0.00000        0.00000
    C        1.38031        0.00000        0.00000
    H        1.72275       -1.04976        0.00503
    H        1.72252        0.52073       -0.91136
    H        1.72263        0.52889        0.90666
     6 
Profile.41 HEAT OF FORMATION =   -179.214 KCAL =   -749.832 KJ
    F        0.00000        0.00000        0.00000
    I        4.74940        0.00000        0.00000
    C        1.37470        0.00000        0.00000
    H        1.72542       -1.04749        0.00499
    H        1.72514        0.51959       -0.90942
    H        1.72545        0.52773        0.90479
     6 
Profile.42 HEAT OF FORMATION =   -180.011 KCAL =   -753.167 KJ
    F        0.00000        0.00000        0.00000
    I        4.84095        0.00000        0.00000
    C        1.37047        0.00000        0.00000
    H        1.72765       -1.04568        0.00504
    H        1.72734        0.51864       -0.90790
    H        1.72767        0.52680        0.90330
     6 
Profile.43 HEAT OF FORMATION =   -180.529 KCAL =   -755.332 KJ
    F        0.00000        0.00000        0.00000
    I        4.93481        0.00000        0.00000
    C        1.36740        0.00000        0.00000
    H        1.72944       -1.04434        0.00508
    H        1.72912        0.51787       -0.90678
    H        1.72949        0.52616        0.90210
     6 
Profile.44 HEAT OF FORMATION =   -180.875 KCAL =   -756.781 KJ
    F        0.00000        0.00000        0.00000
    I        5.03048        0.00000        0.00000
    C        1.36524        0.00000        0.00000
    H        1.73081       -1.04337        0.00510
    H        1.73050        0.51734       -0.90598
    H        1.73089        0.52569        0.90124
     6 
Profile.45 HEAT OF FORMATION =   -180.914 KCAL =   -756.942 KJ
    F        0.00000        0.00000        0.00000
    I        5.12758        0.00000        0.00000
    C        1.36379        0.00000        0.00000
    H        1.73172       -1.04267        0.00510
    H        1.73153        0.51702       -0.90543
    H        1.73193        0.52543        0.90065
     6 
Profile.46 HEAT OF FORMATION =   -181.016 KCAL =   -757.369 KJ
    F        0.00000        0.00000        0.00000
    I        5.22575        0.00000        0.00000
    C        1.36288        0.00000        0.00000
    H        1.73241       -1.04225        0.00516
    H        1.73225        0.51681       -0.90508
    H        1.73266        0.52528        0.90025
     6 
Profile.47 HEAT OF FORMATION =   -181.096 KCAL =   -757.706 KJ
    F        0.00000        0.00000        0.00000
    I        5.32473        0.00000        0.00000
    C        1.36236        0.00000        0.00000
    H        1.73289       -1.04202        0.00519
    H        1.73273        0.51667       -0.90489
    H        1.73315        0.52520        0.90002
     6 
Profile.48 HEAT OF FORMATION =   -181.109 KCAL =   -757.758 KJ
    F        0.00000        0.00000        0.00000
    I        5.42424        0.00000        0.00000
    C        1.36212        0.00000        0.00000
    H        1.73314       -1.04194        0.00505
    H        1.73301        0.51661       -0.90482
    H        1.73339        0.52533        0.89984
     6 
Profile.49 HEAT OF FORMATION =   -181.041 KCAL =   -757.476 KJ
    F        0.00000        0.00000        0.00000
    I        5.52414        0.00000        0.00000
    C        1.36207        0.00000        0.00000
    H        1.73322       -1.04194        0.00518
    H        1.73312        0.51660       -0.90487
    H        1.73340        0.52551        0.89972
     6 
Profile.50 HEAT OF FORMATION =   -181.069 KCAL =   -757.594 KJ
    F        0.00000        0.00000        0.00000
    I        5.62430        0.00000        0.00000
    C        1.36215        0.00000        0.00000
    H        1.73327       -1.04199        0.00519
    H        1.73317        0.51657       -0.90495
    H        1.73341        0.52567        0.89971
     6 
Profile.51 HEAT OF FORMATION =   -181.117 KCAL =   -757.793 KJ
    F        0.00000        0.00000        0.00000
    I        5.72457        0.00000        0.00000
    C        1.36228        0.00000        0.00000
    H        1.73329       -1.04205        0.00529
    H        1.73321        0.51650       -0.90510
    H        1.73346        0.52583        0.89968
     6 
Profile.52 HEAT OF FORMATION =   -181.186 KCAL =   -758.084 KJ
    F        0.00000        0.00000        0.00000
    I        5.82485        0.00000        0.00000
    C        1.36242        0.00000        0.00000
    H        1.73327       -1.04215        0.00544
    H        1.73320        0.51631       -0.90530
    H        1.73345        0.52598        0.89968
     6 
Profile.53 HEAT OF FORMATION =   -181.272 KCAL =   -758.442 KJ
    F        0.00000        0.00000        0.00000
    I        5.92502        0.00000        0.00000
    C        1.36251        0.00000        0.00000
    H        1.73318       -1.04226        0.00567
    H        1.73306        0.51629       -0.90544
    H        1.73338        0.52604        0.89974
     6 
Profile.54 HEAT OF FORMATION =   -181.347 KCAL =   -758.758 KJ
    F        0.00000        0.00000        0.00000
    I        6.02526        0.00000        0.00000
    C        1.36263        0.00000        0.00000
    H        1.73319       -1.04233        0.00581
    H        1.73305        0.51630       -0.90552
    H        1.73337        0.52616        0.89978
     6 
Profile.55 HEAT OF FORMATION =   -181.446 KCAL =   -759.169 KJ
    F        0.00000        0.00000        0.00000
    I        6.12540        0.00000        0.00000
    C        1.36270        0.00000        0.00000
    H        1.73321       -1.04237        0.00591
    H        1.73306        0.51627       -0.90560
    H        1.73336        0.52626        0.89980
     6 
Profile.56 HEAT OF FORMATION =   -181.439 KCAL =   -759.140 KJ
    F        0.00000        0.00000        0.00000
    I        6.22549        0.00000        0.00000
    C        1.36274        0.00000        0.00000
    H        1.73326       -1.04242        0.00595
    H        1.73309        0.51623       -0.90569
    H        1.73335        0.52635        0.89980
     6 
Profile.57 HEAT OF FORMATION =   -181.430 KCAL =   -759.105 KJ
    F        0.00000        0.00000        0.00000
    I        6.32558        0.00000        0.00000
    C        1.36279        0.00000        0.00000
    H        1.73334       -1.04244        0.00603
    H        1.73316        0.51621       -0.90572
    H        1.73345        0.52645        0.89977
     6 
Profile.58 HEAT OF FORMATION =   -181.524 KCAL =   -759.495 KJ
    F        0.00000        0.00000        0.00000
    I        6.42565        0.00000        0.00000
    C        1.36282        0.00000        0.00000
    H        1.73344       -1.04246        0.00608
    H        1.73329        0.51615       -0.90574
    H        1.73357        0.52653        0.89971
     6 
Profile.59 HEAT OF FORMATION =   -181.601 KCAL =   -759.818 KJ
    F        0.00000        0.00000        0.00000
    I        6.52572        0.00000        0.00000
    C        1.36286        0.00000        0.00000
    H        1.73351       -1.04248        0.00615
    H        1.73338        0.51608       -0.90578
    H        1.73369        0.52657        0.89969
     6 
Profile.60 HEAT OF FORMATION =   -181.750 KCAL =   -760.443 KJ
    F        0.00000        0.00000        0.00000
    I        6.62583        0.00000        0.00000
    C        1.36292        0.00000        0.00000
    H        1.73364       -1.04251        0.00610
    H        1.73349        0.51602       -0.90580
    H        1.73384        0.52655        0.89972
     6 
Profile.61 HEAT OF FORMATION =   -181.853 KCAL =   -760.875 KJ
    F        0.00000        0.00000        0.00000
    I        6.72588        0.00000        0.00000
    C        1.36294        0.00000        0.00000
    H        1.73369       -1.04253        0.00609
    H        1.73355        0.51606       -0.90578
    H        1.73390        0.52655        0.89975
     6 
Profile.62 HEAT OF FORMATION =   -181.968 KCAL =   -761.354 KJ
    F        0.00000        0.00000        0.00000
    I        6.82601        0.00000        0.00000
    C        1.36301        0.00000        0.00000
    H        1.73377       -1.04253        0.00620
    H        1.73365        0.51603       -0.90582
    H        1.73396        0.52649        0.89976
     6 
Profile.63 HEAT OF FORMATION =   -181.975 KCAL =   -761.384 KJ
    F        0.00000        0.00000        0.00000
    I        6.92612        0.00000        0.00000
    C        1.36306        0.00000        0.00000
    H        1.73384       -1.04256        0.00633
    H        1.73374        0.51599       -0.90585
    H        1.73402        0.52657        0.89972
     6 
Profile.64 HEAT OF FORMATION =   -182.102 KCAL =   -761.916 KJ
    F        0.00000        0.00000        0.00000
    I        7.02617        0.00000        0.00000
    C        1.36308        0.00000        0.00000
    H        1.73392       -1.04257        0.00647
    H        1.73378        0.51586       -0.90593
    H        1.73406        0.52672        0.89967
     6 
Profile.65 HEAT OF FORMATION =   -182.180 KCAL =   -762.241 KJ
    F        0.00000        0.00000        0.00000
    I        7.12616        0.00000        0.00000
    C        1.36308        0.00000        0.00000
    H        1.73396       -1.04256        0.00663
    H        1.73382        0.51573       -0.90601
    H        1.73410        0.52688        0.89959
     6 
Profile.66 HEAT OF FORMATION =   -182.253 KCAL =   -762.548 KJ
    F        0.00000        0.00000        0.00000
    I        7.22608        0.00000        0.00000
    C        1.36304        0.00000        0.00000
    H        1.73397       -1.04247        0.00654
    H        1.73387        0.51577       -0.90601
    H        1.73409        0.52680        0.89958
     6 
Profile.67 HEAT OF FORMATION =   -182.348 KCAL =   -762.944 KJ
    F        0.00000        0.00000        0.00000
    I        7.32604        0.00000        0.00000
    C        1.36302        0.00000        0.00000
    H        1.73407       -1.04246        0.00648
    H        1.73394        0.51580       -0.90599
    H        1.73416        0.52691        0.89945
     6 
Profile.68 HEAT OF FORMATION =   -182.382 KCAL =   -763.084 KJ
    F        0.00000        0.00000        0.00000
    I        7.42602        0.00000        0.00000
    C        1.36301        0.00000        0.00000
    H        1.73418       -1.04242        0.00659
    H        1.73398        0.51573       -0.90600
    H        1.73424        0.52686        0.89948
     6 
Profile.69 HEAT OF FORMATION =   -182.452 KCAL =   -763.381 KJ
    F        0.00000        0.00000        0.00000
    I        7.52596        0.00000        0.00000
    C        1.36298        0.00000        0.00000
    H        1.73426       -1.04237        0.00676
    H        1.73415        0.51574       -0.90594
    H        1.73435        0.52702        0.89934
     6 
Profile.70 HEAT OF FORMATION =   -182.431 KCAL =   -763.290 KJ
    F        0.00000        0.00000        0.00000
    I        7.62588        0.00000        0.00000
    C        1.36294        0.00000        0.00000
    H        1.73432       -1.04234        0.00683
    H        1.73421        0.51555       -0.90596
    H        1.73442        0.52697        0.89934
